
---------- Begin Simulation Statistics ----------
sim_seconds                                  1.125922                       # Number of seconds simulated
sim_ticks                                1125921832500                       # Number of ticks simulated
final_tick                               1125921832500                       # Number of ticks from beginning of simulation (restored from checkpoints and never reset)
sim_freq                                 1000000000000                       # Frequency of simulated ticks
host_inst_rate                                 243616                       # Simulator instruction rate (inst/s)
host_op_rate                                   467652                       # Simulator op (including micro ops) rate (op/s)
host_tick_rate                             5485860901                       # Simulator tick rate (ticks/s)
host_mem_usage                                 850912                       # Number of bytes of host memory used
host_seconds                                   205.24                       # Real time elapsed on the host
sim_insts                                    50000000                       # Number of instructions simulated
sim_ops                                      95981252                       # Number of ops (including micro ops) simulated
system.voltage_domain.voltage                       1                       # Voltage in Volts
system.clk_domain.clock                          1000                       # Clock period in ticks
system.mem_ctrls.bytes_read::cpu.inst           44000                       # Number of bytes read from this memory
system.mem_ctrls.bytes_read::cpu.data       414822112                       # Number of bytes read from this memory
system.mem_ctrls.bytes_read::total          414866112                       # Number of bytes read from this memory
system.mem_ctrls.bytes_inst_read::cpu.inst        44000                       # Number of instructions bytes read from this memory
system.mem_ctrls.bytes_inst_read::total         44000                       # Number of instructions bytes read from this memory
system.mem_ctrls.bytes_written::writebacks    410615584                       # Number of bytes written to this memory
system.mem_ctrls.bytes_written::total       410615584                       # Number of bytes written to this memory
system.mem_ctrls.num_reads::cpu.inst             1375                       # Number of read requests responded to by this memory
system.mem_ctrls.num_reads::cpu.data         12963191                       # Number of read requests responded to by this memory
system.mem_ctrls.num_reads::total            12964566                       # Number of read requests responded to by this memory
system.mem_ctrls.num_writes::writebacks      12831737                       # Number of write requests responded to by this memory
system.mem_ctrls.num_writes::total           12831737                       # Number of write requests responded to by this memory
system.mem_ctrls.bw_read::cpu.inst              39079                       # Total read bandwidth from this memory (bytes/s)
system.mem_ctrls.bw_read::cpu.data          368428873                       # Total read bandwidth from this memory (bytes/s)
system.mem_ctrls.bw_read::total             368467952                       # Total read bandwidth from this memory (bytes/s)
system.mem_ctrls.bw_inst_read::cpu.inst         39079                       # Instruction read bandwidth from this memory (bytes/s)
system.mem_ctrls.bw_inst_read::total            39079                       # Instruction read bandwidth from this memory (bytes/s)
system.mem_ctrls.bw_write::writebacks       364692799                       # Write bandwidth from this memory (bytes/s)
system.mem_ctrls.bw_write::total            364692799                       # Write bandwidth from this memory (bytes/s)
system.mem_ctrls.bw_total::writebacks       364692799                       # Total bandwidth to/from this memory (bytes/s)
system.mem_ctrls.bw_total::cpu.inst             39079                       # Total bandwidth to/from this memory (bytes/s)
system.mem_ctrls.bw_total::cpu.data         368428873                       # Total bandwidth to/from this memory (bytes/s)
system.mem_ctrls.bw_total::total            733160751                       # Total bandwidth to/from this memory (bytes/s)
system.mem_ctrls.readReqs                    12964566                       # Number of read requests accepted
system.mem_ctrls.writeReqs                   12831737                       # Number of write requests accepted
system.mem_ctrls.readBursts                  12964566                       # Number of DRAM read bursts, including those serviced by the write queue
system.mem_ctrls.writeBursts                 12831737                       # Number of DRAM write bursts, including those merged in the write queue
system.mem_ctrls.bytesReadDRAM              829732224                       # Total number of bytes read from DRAM
system.mem_ctrls.bytesReadWrQ                       0                       # Total number of bytes read from write queue
system.mem_ctrls.bytesWritten               410656960                       # Total number of bytes written to DRAM
system.mem_ctrls.bytesReadSys               414866112                       # Total read bytes from the system interface side
system.mem_ctrls.bytesWrittenSys            410615584                       # Total written bytes from the system interface side
system.mem_ctrls.servicedByWrQ                      0                       # Number of DRAM read bursts serviced by the write queue
system.mem_ctrls.mergedWrBursts               6415193                       # Number of DRAM write bursts merged with an existing one
system.mem_ctrls.neitherReadNorWriteReqs          420                       # Number of requests that are neither read nor write
system.mem_ctrls.perBankRdBursts::0            810209                       # Per bank write bursts
system.mem_ctrls.perBankRdBursts::1            810105                       # Per bank write bursts
system.mem_ctrls.perBankRdBursts::2            810076                       # Per bank write bursts
system.mem_ctrls.perBankRdBursts::3            810053                       # Per bank write bursts
system.mem_ctrls.perBankRdBursts::4            810222                       # Per bank write bursts
system.mem_ctrls.perBankRdBursts::5            810157                       # Per bank write bursts
system.mem_ctrls.perBankRdBursts::6            809779                       # Per bank write bursts
system.mem_ctrls.perBankRdBursts::7            809946                       # Per bank write bursts
system.mem_ctrls.perBankRdBursts::8            809965                       # Per bank write bursts
system.mem_ctrls.perBankRdBursts::9            810188                       # Per bank write bursts
system.mem_ctrls.perBankRdBursts::10           810421                       # Per bank write bursts
system.mem_ctrls.perBankRdBursts::11           810714                       # Per bank write bursts
system.mem_ctrls.perBankRdBursts::12           810668                       # Per bank write bursts
system.mem_ctrls.perBankRdBursts::13           810708                       # Per bank write bursts
system.mem_ctrls.perBankRdBursts::14           810675                       # Per bank write bursts
system.mem_ctrls.perBankRdBursts::15           810680                       # Per bank write bursts
system.mem_ctrls.perBankWrBursts::0            400923                       # Per bank write bursts
system.mem_ctrls.perBankWrBursts::1            400925                       # Per bank write bursts
system.mem_ctrls.perBankWrBursts::2            400947                       # Per bank write bursts
system.mem_ctrls.perBankWrBursts::3            400907                       # Per bank write bursts
system.mem_ctrls.perBankWrBursts::4            400999                       # Per bank write bursts
system.mem_ctrls.perBankWrBursts::5            400922                       # Per bank write bursts
system.mem_ctrls.perBankWrBursts::6            400800                       # Per bank write bursts
system.mem_ctrls.perBankWrBursts::7            400848                       # Per bank write bursts
system.mem_ctrls.perBankWrBursts::8            400913                       # Per bank write bursts
system.mem_ctrls.perBankWrBursts::9            400998                       # Per bank write bursts
system.mem_ctrls.perBankWrBursts::10           401148                       # Per bank write bursts
system.mem_ctrls.perBankWrBursts::11           401271                       # Per bank write bursts
system.mem_ctrls.perBankWrBursts::12           401239                       # Per bank write bursts
system.mem_ctrls.perBankWrBursts::13           401236                       # Per bank write bursts
system.mem_ctrls.perBankWrBursts::14           401243                       # Per bank write bursts
system.mem_ctrls.perBankWrBursts::15           401196                       # Per bank write bursts
system.mem_ctrls.numRdRetry                         0                       # Number of times read queue was full causing retry
system.mem_ctrls.numWrRetry                         0                       # Number of times write queue was full causing retry
system.mem_ctrls.totGap                  1125921814500                       # Total gap between requests
system.mem_ctrls.readPktSize::0                     0                       # Read request sizes (log2)
system.mem_ctrls.readPktSize::1                     0                       # Read request sizes (log2)
system.mem_ctrls.readPktSize::2                     0                       # Read request sizes (log2)
system.mem_ctrls.readPktSize::3                     0                       # Read request sizes (log2)
system.mem_ctrls.readPktSize::4                     0                       # Read request sizes (log2)
system.mem_ctrls.readPktSize::5              12964566                       # Read request sizes (log2)
system.mem_ctrls.readPktSize::6                     0                       # Read request sizes (log2)
system.mem_ctrls.writePktSize::0                    0                       # Write request sizes (log2)
system.mem_ctrls.writePktSize::1                    0                       # Write request sizes (log2)
system.mem_ctrls.writePktSize::2                    0                       # Write request sizes (log2)
system.mem_ctrls.writePktSize::3                    0                       # Write request sizes (log2)
system.mem_ctrls.writePktSize::4                    0                       # Write request sizes (log2)
system.mem_ctrls.writePktSize::5             12831737                       # Write request sizes (log2)
system.mem_ctrls.writePktSize::6                    0                       # Write request sizes (log2)
system.mem_ctrls.rdQLenPdf::0                12964565                       # What read queue length does an incoming req see
system.mem_ctrls.rdQLenPdf::1                       1                       # What read queue length does an incoming req see
system.mem_ctrls.rdQLenPdf::2                       0                       # What read queue length does an incoming req see
system.mem_ctrls.rdQLenPdf::3                       0                       # What read queue length does an incoming req see
system.mem_ctrls.rdQLenPdf::4                       0                       # What read queue length does an incoming req see
system.mem_ctrls.rdQLenPdf::5                       0                       # What read queue length does an incoming req see
system.mem_ctrls.rdQLenPdf::6                       0                       # What read queue length does an incoming req see
system.mem_ctrls.rdQLenPdf::7                       0                       # What read queue length does an incoming req see
system.mem_ctrls.rdQLenPdf::8                       0                       # What read queue length does an incoming req see
system.mem_ctrls.rdQLenPdf::9                       0                       # What read queue length does an incoming req see
system.mem_ctrls.rdQLenPdf::10                      0                       # What read queue length does an incoming req see
system.mem_ctrls.rdQLenPdf::11                      0                       # What read queue length does an incoming req see
system.mem_ctrls.rdQLenPdf::12                      0                       # What read queue length does an incoming req see
system.mem_ctrls.rdQLenPdf::13                      0                       # What read queue length does an incoming req see
system.mem_ctrls.rdQLenPdf::14                      0                       # What read queue length does an incoming req see
system.mem_ctrls.rdQLenPdf::15                      0                       # What read queue length does an incoming req see
system.mem_ctrls.rdQLenPdf::16                      0                       # What read queue length does an incoming req see
system.mem_ctrls.rdQLenPdf::17                      0                       # What read queue length does an incoming req see
system.mem_ctrls.rdQLenPdf::18                      0                       # What read queue length does an incoming req see
system.mem_ctrls.rdQLenPdf::19                      0                       # What read queue length does an incoming req see
system.mem_ctrls.rdQLenPdf::20                      0                       # What read queue length does an incoming req see
system.mem_ctrls.rdQLenPdf::21                      0                       # What read queue length does an incoming req see
system.mem_ctrls.rdQLenPdf::22                      0                       # What read queue length does an incoming req see
system.mem_ctrls.rdQLenPdf::23                      0                       # What read queue length does an incoming req see
system.mem_ctrls.rdQLenPdf::24                      0                       # What read queue length does an incoming req see
system.mem_ctrls.rdQLenPdf::25                      0                       # What read queue length does an incoming req see
system.mem_ctrls.rdQLenPdf::26                      0                       # What read queue length does an incoming req see
system.mem_ctrls.rdQLenPdf::27                      0                       # What read queue length does an incoming req see
system.mem_ctrls.rdQLenPdf::28                      0                       # What read queue length does an incoming req see
system.mem_ctrls.rdQLenPdf::29                      0                       # What read queue length does an incoming req see
system.mem_ctrls.rdQLenPdf::30                      0                       # What read queue length does an incoming req see
system.mem_ctrls.rdQLenPdf::31                      0                       # What read queue length does an incoming req see
system.mem_ctrls.wrQLenPdf::0                       1                       # What write queue length does an incoming req see
system.mem_ctrls.wrQLenPdf::1                       1                       # What write queue length does an incoming req see
system.mem_ctrls.wrQLenPdf::2                       1                       # What write queue length does an incoming req see
system.mem_ctrls.wrQLenPdf::3                       1                       # What write queue length does an incoming req see
system.mem_ctrls.wrQLenPdf::4                       1                       # What write queue length does an incoming req see
system.mem_ctrls.wrQLenPdf::5                       1                       # What write queue length does an incoming req see
system.mem_ctrls.wrQLenPdf::6                       1                       # What write queue length does an incoming req see
system.mem_ctrls.wrQLenPdf::7                       1                       # What write queue length does an incoming req see
system.mem_ctrls.wrQLenPdf::8                       1                       # What write queue length does an incoming req see
system.mem_ctrls.wrQLenPdf::9                       1                       # What write queue length does an incoming req see
system.mem_ctrls.wrQLenPdf::10                      1                       # What write queue length does an incoming req see
system.mem_ctrls.wrQLenPdf::11                      1                       # What write queue length does an incoming req see
system.mem_ctrls.wrQLenPdf::12                      1                       # What write queue length does an incoming req see
system.mem_ctrls.wrQLenPdf::13                      1                       # What write queue length does an incoming req see
system.mem_ctrls.wrQLenPdf::14                      1                       # What write queue length does an incoming req see
system.mem_ctrls.wrQLenPdf::15                     10                       # What write queue length does an incoming req see
system.mem_ctrls.wrQLenPdf::16                     11                       # What write queue length does an incoming req see
system.mem_ctrls.wrQLenPdf::17                 401029                       # What write queue length does an incoming req see
system.mem_ctrls.wrQLenPdf::18                 401032                       # What write queue length does an incoming req see
system.mem_ctrls.wrQLenPdf::19                 401032                       # What write queue length does an incoming req see
system.mem_ctrls.wrQLenPdf::20                 401032                       # What write queue length does an incoming req see
system.mem_ctrls.wrQLenPdf::21                 401032                       # What write queue length does an incoming req see
system.mem_ctrls.wrQLenPdf::22                 401032                       # What write queue length does an incoming req see
system.mem_ctrls.wrQLenPdf::23                 401032                       # What write queue length does an incoming req see
system.mem_ctrls.wrQLenPdf::24                 401032                       # What write queue length does an incoming req see
system.mem_ctrls.wrQLenPdf::25                 401033                       # What write queue length does an incoming req see
system.mem_ctrls.wrQLenPdf::26                 401032                       # What write queue length does an incoming req see
system.mem_ctrls.wrQLenPdf::27                 401032                       # What write queue length does an incoming req see
system.mem_ctrls.wrQLenPdf::28                 401033                       # What write queue length does an incoming req see
system.mem_ctrls.wrQLenPdf::29                 401032                       # What write queue length does an incoming req see
system.mem_ctrls.wrQLenPdf::30                 401031                       # What write queue length does an incoming req see
system.mem_ctrls.wrQLenPdf::31                 401031                       # What write queue length does an incoming req see
system.mem_ctrls.wrQLenPdf::32                 401031                       # What write queue length does an incoming req see
system.mem_ctrls.wrQLenPdf::33                      0                       # What write queue length does an incoming req see
system.mem_ctrls.wrQLenPdf::34                      0                       # What write queue length does an incoming req see
system.mem_ctrls.wrQLenPdf::35                      0                       # What write queue length does an incoming req see
system.mem_ctrls.wrQLenPdf::36                      0                       # What write queue length does an incoming req see
system.mem_ctrls.wrQLenPdf::37                      0                       # What write queue length does an incoming req see
system.mem_ctrls.wrQLenPdf::38                      0                       # What write queue length does an incoming req see
system.mem_ctrls.wrQLenPdf::39                      0                       # What write queue length does an incoming req see
system.mem_ctrls.wrQLenPdf::40                      0                       # What write queue length does an incoming req see
system.mem_ctrls.wrQLenPdf::41                      0                       # What write queue length does an incoming req see
system.mem_ctrls.wrQLenPdf::42                      0                       # What write queue length does an incoming req see
system.mem_ctrls.wrQLenPdf::43                      0                       # What write queue length does an incoming req see
system.mem_ctrls.wrQLenPdf::44                      0                       # What write queue length does an incoming req see
system.mem_ctrls.wrQLenPdf::45                      0                       # What write queue length does an incoming req see
system.mem_ctrls.wrQLenPdf::46                      0                       # What write queue length does an incoming req see
system.mem_ctrls.wrQLenPdf::47                      0                       # What write queue length does an incoming req see
system.mem_ctrls.wrQLenPdf::48                      0                       # What write queue length does an incoming req see
system.mem_ctrls.wrQLenPdf::49                      0                       # What write queue length does an incoming req see
system.mem_ctrls.wrQLenPdf::50                      0                       # What write queue length does an incoming req see
system.mem_ctrls.wrQLenPdf::51                      0                       # What write queue length does an incoming req see
system.mem_ctrls.wrQLenPdf::52                      0                       # What write queue length does an incoming req see
system.mem_ctrls.wrQLenPdf::53                      0                       # What write queue length does an incoming req see
system.mem_ctrls.wrQLenPdf::54                      0                       # What write queue length does an incoming req see
system.mem_ctrls.wrQLenPdf::55                      0                       # What write queue length does an incoming req see
system.mem_ctrls.wrQLenPdf::56                      0                       # What write queue length does an incoming req see
system.mem_ctrls.wrQLenPdf::57                      0                       # What write queue length does an incoming req see
system.mem_ctrls.wrQLenPdf::58                      0                       # What write queue length does an incoming req see
system.mem_ctrls.wrQLenPdf::59                      0                       # What write queue length does an incoming req see
system.mem_ctrls.wrQLenPdf::60                      0                       # What write queue length does an incoming req see
system.mem_ctrls.wrQLenPdf::61                      0                       # What write queue length does an incoming req see
system.mem_ctrls.wrQLenPdf::62                      0                       # What write queue length does an incoming req see
system.mem_ctrls.wrQLenPdf::63                      0                       # What write queue length does an incoming req see
system.mem_ctrls.bytesPerActivate::samples      1438393                       # Bytes accessed per row activation
system.mem_ctrls.bytesPerActivate::mean    862.343107                       # Bytes accessed per row activation
system.mem_ctrls.bytesPerActivate::gmean   753.750831                       # Bytes accessed per row activation
system.mem_ctrls.bytesPerActivate::stdev   291.979637                       # Bytes accessed per row activation
system.mem_ctrls.bytesPerActivate::0-127        54353      3.78%      3.78% # Bytes accessed per row activation
system.mem_ctrls.bytesPerActivate::128-255        52746      3.67%      7.45% # Bytes accessed per row activation
system.mem_ctrls.bytesPerActivate::256-383        47107      3.27%     10.72% # Bytes accessed per row activation
system.mem_ctrls.bytesPerActivate::384-511        65895      4.58%     15.30% # Bytes accessed per row activation
system.mem_ctrls.bytesPerActivate::512-639        60306      4.19%     19.49% # Bytes accessed per row activation
system.mem_ctrls.bytesPerActivate::640-767        49447      3.44%     22.93% # Bytes accessed per row activation
system.mem_ctrls.bytesPerActivate::768-895        43947      3.06%     25.99% # Bytes accessed per row activation
system.mem_ctrls.bytesPerActivate::896-1023        66525      4.62%     30.61% # Bytes accessed per row activation
system.mem_ctrls.bytesPerActivate::1024-1151       998067     69.39%    100.00% # Bytes accessed per row activation
system.mem_ctrls.bytesPerActivate::total      1438393                       # Bytes accessed per row activation
system.mem_ctrls.rdPerTurnAround::samples       401031                       # Reads before turning the bus around for writes
system.mem_ctrls.rdPerTurnAround::mean      32.328027                       # Reads before turning the bus around for writes
system.mem_ctrls.rdPerTurnAround::gmean     32.005305                       # Reads before turning the bus around for writes
system.mem_ctrls.rdPerTurnAround::stdev    125.831225                       # Reads before turning the bus around for writes
system.mem_ctrls.rdPerTurnAround::0-4095       401027    100.00%    100.00% # Reads before turning the bus around for writes
system.mem_ctrls.rdPerTurnAround::4096-8191            1      0.00%    100.00% # Reads before turning the bus around for writes
system.mem_ctrls.rdPerTurnAround::8192-12287            1      0.00%    100.00% # Reads before turning the bus around for writes
system.mem_ctrls.rdPerTurnAround::36864-40959            1      0.00%    100.00% # Reads before turning the bus around for writes
system.mem_ctrls.rdPerTurnAround::65536-69631            1      0.00%    100.00% # Reads before turning the bus around for writes
system.mem_ctrls.rdPerTurnAround::total        401031                       # Reads before turning the bus around for writes
system.mem_ctrls.wrPerTurnAround::samples       401031                       # Writes before turning the bus around for reads
system.mem_ctrls.wrPerTurnAround::mean      16.000047                       # Writes before turning the bus around for reads
system.mem_ctrls.wrPerTurnAround::gmean     16.000045                       # Writes before turning the bus around for reads
system.mem_ctrls.wrPerTurnAround::stdev      0.009605                       # Writes before turning the bus around for reads
system.mem_ctrls.wrPerTurnAround::16           401021    100.00%    100.00% # Writes before turning the bus around for reads
system.mem_ctrls.wrPerTurnAround::17                1      0.00%    100.00% # Writes before turning the bus around for reads
system.mem_ctrls.wrPerTurnAround::18                9      0.00%    100.00% # Writes before turning the bus around for reads
system.mem_ctrls.wrPerTurnAround::total        401031                       # Writes before turning the bus around for reads
system.mem_ctrls.totQLat                  94077648000                       # Total ticks spent queuing
system.mem_ctrls.totMemAccLat            337163260500                       # Total ticks spent from burst creation until serviced by the DRAM
system.mem_ctrls.totBusLat                64822830000                       # Total ticks spent in databus transfers
system.mem_ctrls.avgQLat                      7256.52                       # Average queueing delay per DRAM burst
system.mem_ctrls.avgBusLat                    5000.00                       # Average bus latency per DRAM burst
system.mem_ctrls.avgMemAccLat                26006.52                       # Average memory access latency per DRAM burst
system.mem_ctrls.avgRdBW                       736.94                       # Average DRAM read bandwidth in MiByte/s
system.mem_ctrls.avgWrBW                       364.73                       # Average achieved write bandwidth in MiByte/s
system.mem_ctrls.avgRdBWSys                    368.47                       # Average system read bandwidth in MiByte/s
system.mem_ctrls.avgWrBWSys                    364.69                       # Average system write bandwidth in MiByte/s
system.mem_ctrls.peakBW                      12800.00                       # Theoretical peak bandwidth in MiByte/s
system.mem_ctrls.busUtil                         8.61                       # Data bus utilization in percentage
system.mem_ctrls.busUtilRead                     5.76                       # Data bus utilization in percentage for reads
system.mem_ctrls.busUtilWrite                    2.85                       # Data bus utilization in percentage for writes
system.mem_ctrls.avgRdQLen                       1.00                       # Average read queue length when enqueuing
system.mem_ctrls.avgWrQLen                      25.68                       # Average write queue length when enqueuing
system.mem_ctrls.readRowHits                 11981821                       # Number of row buffer hits during reads
system.mem_ctrls.writeRowHits                 5960866                       # Number of row buffer hits during writes
system.mem_ctrls.readRowHitRate                 92.42                       # Row buffer hit rate for reads
system.mem_ctrls.writeRowHitRate                92.90                       # Row buffer hit rate for writes
system.mem_ctrls.avgGap                      43646.63                       # Average gap between requests
system.mem_ctrls.pageHitRate                    92.58                       # Row buffer hit rate, read and write combined
system.mem_ctrls_0.actEnergy               5435042760                       # Energy for activate commands per rank (pJ)
system.mem_ctrls_0.preEnergy               2965549125                       # Energy for precharge commands per rank (pJ)
system.mem_ctrls_0.readEnergy             50548032600                       # Energy for read commands per rank (pJ)
system.mem_ctrls_0.writeEnergy            20783116080                       # Energy for write commands per rank (pJ)
system.mem_ctrls_0.refreshEnergy          73539301680                       # Energy for refresh commands per rank (pJ)
system.mem_ctrls_0.actBackEnergy         391897009980                       # Energy for active background per rank (pJ)
system.mem_ctrls_0.preBackEnergy         331779906000                       # Energy for precharge background per rank (pJ)
system.mem_ctrls_0.totalEnergy           876947958225                       # Total energy per rank (pJ)
system.mem_ctrls_0.averagePower            778.875565                       # Core power per rank (mW)
system.mem_ctrls_0.memoryStateTime::IDLE 543615981750                       # Time in different power states
system.mem_ctrls_0.memoryStateTime::REF   37596780000                       # Time in different power states
system.mem_ctrls_0.memoryStateTime::PRE_PDN            0                       # Time in different power states
system.mem_ctrls_0.memoryStateTime::ACT  544707966250                       # Time in different power states
system.mem_ctrls_0.memoryStateTime::ACT_PDN            0                       # Time in different power states
system.mem_ctrls_1.actEnergy               5439155400                       # Energy for activate commands per rank (pJ)
system.mem_ctrls_1.preEnergy               2967793125                       # Energy for precharge commands per rank (pJ)
system.mem_ctrls_1.readEnergy             50574973800                       # Energy for read commands per rank (pJ)
system.mem_ctrls_1.writeEnergy            20795693760                       # Energy for write commands per rank (pJ)
system.mem_ctrls_1.refreshEnergy          73539301680                       # Energy for refresh commands per rank (pJ)
system.mem_ctrls_1.actBackEnergy         392381113545                       # Energy for active background per rank (pJ)
system.mem_ctrls_1.preBackEnergy         331355262000                       # Energy for precharge background per rank (pJ)
system.mem_ctrls_1.totalEnergy           877053293310                       # Total energy per rank (pJ)
system.mem_ctrls_1.averagePower            778.969111                       # Core power per rank (mW)
system.mem_ctrls_1.memoryStateTime::IDLE 542897928250                       # Time in different power states
system.mem_ctrls_1.memoryStateTime::REF   37596780000                       # Time in different power states
system.mem_ctrls_1.memoryStateTime::PRE_PDN            0                       # Time in different power states
system.mem_ctrls_1.memoryStateTime::ACT  545425189750                       # Time in different power states
system.mem_ctrls_1.memoryStateTime::ACT_PDN            0                       # Time in different power states
system.cpu.branchPred.lookups                 6543945                       # Number of BP lookups
system.cpu.branchPred.condPredicted           6543945                       # Number of conditional branches predicted
system.cpu.branchPred.condIncorrect              3470                       # Number of conditional branches incorrect
system.cpu.branchPred.BTBLookups              6535561                       # Number of BTB lookups
system.cpu.branchPred.BTBHits                 6527013                       # Number of BTB hits
system.cpu.branchPred.BTBCorrect                    0                       # Number of correct BTB predictions (this stat may not work properly.
system.cpu.branchPred.BTBHitPct             99.869208                       # BTB Hit Percentage
system.cpu.branchPred.BTBMissPct             0.130792                       # BTB Miss Percentage
system.cpu.branchPred.usedRAS                    3769                       # Number of times the RAS was used to get a target.
system.cpu.branchPred.RASInCorrect                227                       # Number of incorrect RAS predictions.
system.cpu_voltage_domain.voltage                   1                       # Voltage in Volts
system.cpu_clk_domain.clock                       500                       # Clock period in ticks
system.cpu.apic_clk_domain.clock                 8000                       # Clock period in ticks
system.cpu.workload.num_syscalls                  108                       # Number of system calls
system.cpu.numCycles                       2251843665                       # number of cpu cycles simulated
system.cpu.numWorkItemsStarted                      0                       # number of work items this cpu started
system.cpu.numWorkItemsCompleted                    0                       # number of work items this cpu completed
system.cpu.committedInsts                    50000000                       # Number of instructions committed
system.cpu.committedOps                      95981252                       # Number of ops (including micro ops) committed
system.cpu.num_int_alu_accesses              95975786                       # Number of integer alu accesses
system.cpu.num_fp_alu_accesses               51833399                       # Number of float alu accesses
system.cpu.num_func_calls                        7602                       # number of times a function call or return occured
system.cpu.num_conditional_control_insts      6532565                       # number of instructions that are conditional controls
system.cpu.num_int_insts                     95975786                       # number of integer instructions
system.cpu.num_fp_insts                      51833399                       # number of float instructions
system.cpu.num_int_register_reads           219093281                       # number of times the integer registers were read
system.cpu.num_int_register_writes           37404609                       # number of times the integer registers were written
system.cpu.num_fp_register_reads             51836935                       # number of times the floating registers were read
system.cpu.num_fp_register_writes                4221                       # number of times the floating registers were written
system.cpu.num_cc_register_reads             34496136                       # number of times the CC registers were read
system.cpu.num_cc_register_writes            29304313                       # number of times the CC registers were written
system.cpu.num_mem_refs                      53378426                       # number of memory refs
system.cpu.num_load_insts                     1350125                       # Number of load instructions
system.cpu.num_store_insts                   52028301                       # Number of store instructions
system.cpu.num_idle_cycles                          0                       # Number of idle cycles
system.cpu.num_busy_cycles                 2251843665                       # Number of busy cycles
system.cpu.not_idle_fraction                        1                       # Percentage of non-idle cycles
system.cpu.idle_fraction                            0                       # Percentage of idle cycles
system.cpu.Branches                           6543945                       # Number of branches fetched
system.cpu.predictedBranches                  6530782                       # Number of branches predicted as taken
system.cpu.BranchMispred                         3470                       # Number of branch mispredictions
system.cpu.numBranchMispreadPercent          0.053026                       # Number of Branch Mispread Percent
system.cpu.op_class::No_OpClass                  1614      0.00%      0.00% # Class of executed instruction
system.cpu.op_class::IntAlu                  42596796     44.38%     44.38% # Class of executed instruction
system.cpu.op_class::IntMult                      725      0.00%     44.38% # Class of executed instruction
system.cpu.op_class::IntDiv                        21      0.00%     44.38% # Class of executed instruction
system.cpu.op_class::FloatAdd                    3670      0.00%     44.39% # Class of executed instruction
system.cpu.op_class::FloatCmp                       0      0.00%     44.39% # Class of executed instruction
system.cpu.op_class::FloatCvt                       0      0.00%     44.39% # Class of executed instruction
system.cpu.op_class::FloatMult                      0      0.00%     44.39% # Class of executed instruction
system.cpu.op_class::FloatDiv                       0      0.00%     44.39% # Class of executed instruction
system.cpu.op_class::FloatSqrt                      0      0.00%     44.39% # Class of executed instruction
system.cpu.op_class::SimdAdd                        0      0.00%     44.39% # Class of executed instruction
system.cpu.op_class::SimdAddAcc                     0      0.00%     44.39% # Class of executed instruction
system.cpu.op_class::SimdAlu                        0      0.00%     44.39% # Class of executed instruction
system.cpu.op_class::SimdCmp                        0      0.00%     44.39% # Class of executed instruction
system.cpu.op_class::SimdCvt                        0      0.00%     44.39% # Class of executed instruction
system.cpu.op_class::SimdMisc                       0      0.00%     44.39% # Class of executed instruction
system.cpu.op_class::SimdMult                       0      0.00%     44.39% # Class of executed instruction
system.cpu.op_class::SimdMultAcc                    0      0.00%     44.39% # Class of executed instruction
system.cpu.op_class::SimdShift                      0      0.00%     44.39% # Class of executed instruction
system.cpu.op_class::SimdShiftAcc                   0      0.00%     44.39% # Class of executed instruction
system.cpu.op_class::SimdSqrt                       0      0.00%     44.39% # Class of executed instruction
system.cpu.op_class::SimdFloatAdd                   0      0.00%     44.39% # Class of executed instruction
system.cpu.op_class::SimdFloatAlu                   0      0.00%     44.39% # Class of executed instruction
system.cpu.op_class::SimdFloatCmp                   0      0.00%     44.39% # Class of executed instruction
system.cpu.op_class::SimdFloatCvt                   0      0.00%     44.39% # Class of executed instruction
system.cpu.op_class::SimdFloatDiv                   0      0.00%     44.39% # Class of executed instruction
system.cpu.op_class::SimdFloatMisc                  0      0.00%     44.39% # Class of executed instruction
system.cpu.op_class::SimdFloatMult                  0      0.00%     44.39% # Class of executed instruction
system.cpu.op_class::SimdFloatMultAcc               0      0.00%     44.39% # Class of executed instruction
system.cpu.op_class::SimdFloatSqrt                  0      0.00%     44.39% # Class of executed instruction
system.cpu.op_class::MemRead                  1350125      1.41%     45.79% # Class of executed instruction
system.cpu.op_class::MemWrite                52028301     54.21%    100.00% # Class of executed instruction
system.cpu.op_class::IprAccess                      0      0.00%    100.00% # Class of executed instruction
system.cpu.op_class::InstPrefetch                   0      0.00%    100.00% # Class of executed instruction
system.cpu.op_class::total                   95981252                       # Class of executed instruction
system.cpu.dcache.tags.replacements          12961175                       # number of replacements
system.cpu.dcache.tags.tagsinuse          2046.733980                       # Cycle average of tags in use
system.cpu.dcache.tags.total_refs            40415232                       # Total number of references to valid blocks.
system.cpu.dcache.tags.sampled_refs          12963223                       # Sample count of references to valid blocks.
system.cpu.dcache.tags.avg_refs              3.117684                       # Average number of references to valid blocks.
system.cpu.dcache.tags.warmup_cycle        5578495500                       # Cycle when the warmup percentage was hit.
system.cpu.dcache.tags.occ_blocks::cpu.data  2046.733980                       # Average occupied blocks per requestor
system.cpu.dcache.tags.occ_percent::cpu.data     0.999382                       # Average percentage of cache occupancy
system.cpu.dcache.tags.occ_percent::total     0.999382                       # Average percentage of cache occupancy
system.cpu.dcache.tags.occ_task_id_blocks::1024         2048                       # Occupied blocks per task id
system.cpu.dcache.tags.age_task_id_blocks_1024::0          118                       # Occupied blocks per task id
system.cpu.dcache.tags.age_task_id_blocks_1024::1         1042                       # Occupied blocks per task id
system.cpu.dcache.tags.age_task_id_blocks_1024::2          888                       # Occupied blocks per task id
system.cpu.dcache.tags.occ_task_id_percent::1024            1                       # Percentage of cache occupancy per task id
system.cpu.dcache.tags.tag_accesses         119720133                       # Number of tag accesses
system.cpu.dcache.tags.data_accesses        119720133                       # Number of data accesses
system.cpu.dcache.ReadReq_hits::cpu.data      1349641                       # number of ReadReq hits
system.cpu.dcache.ReadReq_hits::total         1349641                       # number of ReadReq hits
system.cpu.dcache.WriteReq_hits::cpu.data     39065591                       # number of WriteReq hits
system.cpu.dcache.WriteReq_hits::total       39065591                       # number of WriteReq hits
system.cpu.dcache.demand_hits::cpu.data      40415232                       # number of demand (read+write) hits
system.cpu.dcache.demand_hits::total         40415232                       # number of demand (read+write) hits
system.cpu.dcache.overall_hits::cpu.data     40415232                       # number of overall hits
system.cpu.dcache.overall_hits::total        40415232                       # number of overall hits
system.cpu.dcache.ReadReq_misses::cpu.data          501                       # number of ReadReq misses
system.cpu.dcache.ReadReq_misses::total           501                       # number of ReadReq misses
system.cpu.dcache.WriteReq_misses::cpu.data     12962722                       # number of WriteReq misses
system.cpu.dcache.WriteReq_misses::total     12962722                       # number of WriteReq misses
system.cpu.dcache.demand_misses::cpu.data     12963223                       # number of demand (read+write) misses
system.cpu.dcache.demand_misses::total       12963223                       # number of demand (read+write) misses
system.cpu.dcache.overall_misses::cpu.data     12963223                       # number of overall misses
system.cpu.dcache.overall_misses::total      12963223                       # number of overall misses
system.cpu.dcache.ReadReq_miss_latency::cpu.data     41311500                       # number of ReadReq miss cycles
system.cpu.dcache.ReadReq_miss_latency::total     41311500                       # number of ReadReq miss cycles
system.cpu.dcache.WriteReq_miss_latency::cpu.data 1014588162000                       # number of WriteReq miss cycles
system.cpu.dcache.WriteReq_miss_latency::total 1014588162000                       # number of WriteReq miss cycles
system.cpu.dcache.demand_miss_latency::cpu.data 1014629473500                       # number of demand (read+write) miss cycles
system.cpu.dcache.demand_miss_latency::total 1014629473500                       # number of demand (read+write) miss cycles
system.cpu.dcache.overall_miss_latency::cpu.data 1014629473500                       # number of overall miss cycles
system.cpu.dcache.overall_miss_latency::total 1014629473500                       # number of overall miss cycles
system.cpu.dcache.ReadReq_accesses::cpu.data      1350142                       # number of ReadReq accesses(hits+misses)
system.cpu.dcache.ReadReq_accesses::total      1350142                       # number of ReadReq accesses(hits+misses)
system.cpu.dcache.WriteReq_accesses::cpu.data     52028313                       # number of WriteReq accesses(hits+misses)
system.cpu.dcache.WriteReq_accesses::total     52028313                       # number of WriteReq accesses(hits+misses)
system.cpu.dcache.demand_accesses::cpu.data     53378455                       # number of demand (read+write) accesses
system.cpu.dcache.demand_accesses::total     53378455                       # number of demand (read+write) accesses
system.cpu.dcache.overall_accesses::cpu.data     53378455                       # number of overall (read+write) accesses
system.cpu.dcache.overall_accesses::total     53378455                       # number of overall (read+write) accesses
system.cpu.dcache.ReadReq_miss_rate::cpu.data     0.000371                       # miss rate for ReadReq accesses
system.cpu.dcache.ReadReq_miss_rate::total     0.000371                       # miss rate for ReadReq accesses
system.cpu.dcache.WriteReq_miss_rate::cpu.data     0.249147                       # miss rate for WriteReq accesses
system.cpu.dcache.WriteReq_miss_rate::total     0.249147                       # miss rate for WriteReq accesses
system.cpu.dcache.demand_miss_rate::cpu.data     0.242855                       # miss rate for demand accesses
system.cpu.dcache.demand_miss_rate::total     0.242855                       # miss rate for demand accesses
system.cpu.dcache.overall_miss_rate::cpu.data     0.242855                       # miss rate for overall accesses
system.cpu.dcache.overall_miss_rate::total     0.242855                       # miss rate for overall accesses
system.cpu.dcache.ReadReq_avg_miss_latency::cpu.data 82458.083832                       # average ReadReq miss latency
system.cpu.dcache.ReadReq_avg_miss_latency::total 82458.083832                       # average ReadReq miss latency
system.cpu.dcache.WriteReq_avg_miss_latency::cpu.data 78269.684562                       # average WriteReq miss latency
system.cpu.dcache.WriteReq_avg_miss_latency::total 78269.684562                       # average WriteReq miss latency
system.cpu.dcache.demand_avg_miss_latency::cpu.data 78269.846434                       # average overall miss latency
system.cpu.dcache.demand_avg_miss_latency::total 78269.846434                       # average overall miss latency
system.cpu.dcache.overall_avg_miss_latency::cpu.data 78269.846434                       # average overall miss latency
system.cpu.dcache.overall_avg_miss_latency::total 78269.846434                       # average overall miss latency
system.cpu.dcache.blocked_cycles::no_mshrs            0                       # number of cycles access was blocked
system.cpu.dcache.blocked_cycles::no_targets            0                       # number of cycles access was blocked
system.cpu.dcache.blocked::no_mshrs                 0                       # number of cycles access was blocked
system.cpu.dcache.blocked::no_targets               0                       # number of cycles access was blocked
system.cpu.dcache.avg_blocked_cycles::no_mshrs          nan                       # average number of cycles each access was blocked
system.cpu.dcache.avg_blocked_cycles::no_targets          nan                       # average number of cycles each access was blocked
system.cpu.dcache.fast_writes                       0                       # number of fast writes performed
system.cpu.dcache.cache_copies                      0                       # number of cache copies performed
system.cpu.dcache.writebacks::writebacks     12960790                       # number of writebacks
system.cpu.dcache.writebacks::total          12960790                       # number of writebacks
system.cpu.dcache.ReadReq_mshr_misses::cpu.data          501                       # number of ReadReq MSHR misses
system.cpu.dcache.ReadReq_mshr_misses::total          501                       # number of ReadReq MSHR misses
system.cpu.dcache.WriteReq_mshr_misses::cpu.data     12962722                       # number of WriteReq MSHR misses
system.cpu.dcache.WriteReq_mshr_misses::total     12962722                       # number of WriteReq MSHR misses
system.cpu.dcache.demand_mshr_misses::cpu.data     12963223                       # number of demand (read+write) MSHR misses
system.cpu.dcache.demand_mshr_misses::total     12963223                       # number of demand (read+write) MSHR misses
system.cpu.dcache.overall_mshr_misses::cpu.data     12963223                       # number of overall MSHR misses
system.cpu.dcache.overall_mshr_misses::total     12963223                       # number of overall MSHR misses
system.cpu.dcache.ReadReq_mshr_miss_latency::cpu.data     40810500                       # number of ReadReq MSHR miss cycles
system.cpu.dcache.ReadReq_mshr_miss_latency::total     40810500                       # number of ReadReq MSHR miss cycles
system.cpu.dcache.WriteReq_mshr_miss_latency::cpu.data 1001625440000                       # number of WriteReq MSHR miss cycles
system.cpu.dcache.WriteReq_mshr_miss_latency::total 1001625440000                       # number of WriteReq MSHR miss cycles
system.cpu.dcache.demand_mshr_miss_latency::cpu.data 1001666250500                       # number of demand (read+write) MSHR miss cycles
system.cpu.dcache.demand_mshr_miss_latency::total 1001666250500                       # number of demand (read+write) MSHR miss cycles
system.cpu.dcache.overall_mshr_miss_latency::cpu.data 1001666250500                       # number of overall MSHR miss cycles
system.cpu.dcache.overall_mshr_miss_latency::total 1001666250500                       # number of overall MSHR miss cycles
system.cpu.dcache.ReadReq_mshr_miss_rate::cpu.data     0.000371                       # mshr miss rate for ReadReq accesses
system.cpu.dcache.ReadReq_mshr_miss_rate::total     0.000371                       # mshr miss rate for ReadReq accesses
system.cpu.dcache.WriteReq_mshr_miss_rate::cpu.data     0.249147                       # mshr miss rate for WriteReq accesses
system.cpu.dcache.WriteReq_mshr_miss_rate::total     0.249147                       # mshr miss rate for WriteReq accesses
system.cpu.dcache.demand_mshr_miss_rate::cpu.data     0.242855                       # mshr miss rate for demand accesses
system.cpu.dcache.demand_mshr_miss_rate::total     0.242855                       # mshr miss rate for demand accesses
system.cpu.dcache.overall_mshr_miss_rate::cpu.data     0.242855                       # mshr miss rate for overall accesses
system.cpu.dcache.overall_mshr_miss_rate::total     0.242855                       # mshr miss rate for overall accesses
system.cpu.dcache.ReadReq_avg_mshr_miss_latency::cpu.data 81458.083832                       # average ReadReq mshr miss latency
system.cpu.dcache.ReadReq_avg_mshr_miss_latency::total 81458.083832                       # average ReadReq mshr miss latency
system.cpu.dcache.WriteReq_avg_mshr_miss_latency::cpu.data 77269.684562                       # average WriteReq mshr miss latency
system.cpu.dcache.WriteReq_avg_mshr_miss_latency::total 77269.684562                       # average WriteReq mshr miss latency
system.cpu.dcache.demand_avg_mshr_miss_latency::cpu.data 77269.846434                       # average overall mshr miss latency
system.cpu.dcache.demand_avg_mshr_miss_latency::total 77269.846434                       # average overall mshr miss latency
system.cpu.dcache.overall_avg_mshr_miss_latency::cpu.data 77269.846434                       # average overall mshr miss latency
system.cpu.dcache.overall_avg_mshr_miss_latency::total 77269.846434                       # average overall mshr miss latency
system.cpu.dcache.no_allocate_misses                0                       # Number of misses that were no-allocate
system.cpu.dtb_walker_cache.tags.replacements            0                       # number of replacements
system.cpu.dtb_walker_cache.tags.tagsinuse            0                       # Cycle average of tags in use
system.cpu.dtb_walker_cache.tags.total_refs            0                       # Total number of references to valid blocks.
system.cpu.dtb_walker_cache.tags.sampled_refs            0                       # Sample count of references to valid blocks.
system.cpu.dtb_walker_cache.tags.avg_refs          nan                       # Average number of references to valid blocks.
system.cpu.dtb_walker_cache.tags.warmup_cycle            0                       # Cycle when the warmup percentage was hit.
system.cpu.dtb_walker_cache.tags.tag_accesses            0                       # Number of tag accesses
system.cpu.dtb_walker_cache.tags.data_accesses            0                       # Number of data accesses
system.cpu.dtb_walker_cache.blocked_cycles::no_mshrs            0                       # number of cycles access was blocked
system.cpu.dtb_walker_cache.blocked_cycles::no_targets            0                       # number of cycles access was blocked
system.cpu.dtb_walker_cache.blocked::no_mshrs            0                       # number of cycles access was blocked
system.cpu.dtb_walker_cache.blocked::no_targets            0                       # number of cycles access was blocked
system.cpu.dtb_walker_cache.avg_blocked_cycles::no_mshrs          nan                       # average number of cycles each access was blocked
system.cpu.dtb_walker_cache.avg_blocked_cycles::no_targets          nan                       # average number of cycles each access was blocked
system.cpu.dtb_walker_cache.fast_writes             0                       # number of fast writes performed
system.cpu.dtb_walker_cache.cache_copies            0                       # number of cache copies performed
system.cpu.dtb_walker_cache.no_allocate_misses            0                       # Number of misses that were no-allocate
system.cpu.icache.tags.replacements                71                       # number of replacements
system.cpu.icache.tags.tagsinuse           866.821489                       # Cycle average of tags in use
system.cpu.icache.tags.total_refs            70767127                       # Total number of references to valid blocks.
system.cpu.icache.tags.sampled_refs              1408                       # Sample count of references to valid blocks.
system.cpu.icache.tags.avg_refs          50260.743608                       # Average number of references to valid blocks.
system.cpu.icache.tags.warmup_cycle                 0                       # Cycle when the warmup percentage was hit.
system.cpu.icache.tags.occ_blocks::cpu.inst   866.821489                       # Average occupied blocks per requestor
system.cpu.icache.tags.occ_percent::cpu.inst     0.211626                       # Average percentage of cache occupancy
system.cpu.icache.tags.occ_percent::total     0.211626                       # Average percentage of cache occupancy
system.cpu.icache.tags.occ_task_id_blocks::1024         1337                       # Occupied blocks per task id
system.cpu.icache.tags.age_task_id_blocks_1024::4         1337                       # Occupied blocks per task id
system.cpu.icache.tags.occ_task_id_percent::1024     0.326416                       # Percentage of cache occupancy per task id
system.cpu.icache.tags.tag_accesses         141538478                       # Number of tag accesses
system.cpu.icache.tags.data_accesses        141538478                       # Number of data accesses
system.cpu.icache.ReadReq_hits::cpu.inst     70767127                       # number of ReadReq hits
system.cpu.icache.ReadReq_hits::total        70767127                       # number of ReadReq hits
system.cpu.icache.demand_hits::cpu.inst      70767127                       # number of demand (read+write) hits
system.cpu.icache.demand_hits::total         70767127                       # number of demand (read+write) hits
system.cpu.icache.overall_hits::cpu.inst     70767127                       # number of overall hits
system.cpu.icache.overall_hits::total        70767127                       # number of overall hits
system.cpu.icache.ReadReq_misses::cpu.inst         1408                       # number of ReadReq misses
system.cpu.icache.ReadReq_misses::total          1408                       # number of ReadReq misses
system.cpu.icache.demand_misses::cpu.inst         1408                       # number of demand (read+write) misses
system.cpu.icache.demand_misses::total           1408                       # number of demand (read+write) misses
system.cpu.icache.overall_misses::cpu.inst         1408                       # number of overall misses
system.cpu.icache.overall_misses::total          1408                       # number of overall misses
system.cpu.icache.ReadReq_miss_latency::cpu.inst    110119000                       # number of ReadReq miss cycles
system.cpu.icache.ReadReq_miss_latency::total    110119000                       # number of ReadReq miss cycles
system.cpu.icache.demand_miss_latency::cpu.inst    110119000                       # number of demand (read+write) miss cycles
system.cpu.icache.demand_miss_latency::total    110119000                       # number of demand (read+write) miss cycles
system.cpu.icache.overall_miss_latency::cpu.inst    110119000                       # number of overall miss cycles
system.cpu.icache.overall_miss_latency::total    110119000                       # number of overall miss cycles
system.cpu.icache.ReadReq_accesses::cpu.inst     70768535                       # number of ReadReq accesses(hits+misses)
system.cpu.icache.ReadReq_accesses::total     70768535                       # number of ReadReq accesses(hits+misses)
system.cpu.icache.demand_accesses::cpu.inst     70768535                       # number of demand (read+write) accesses
system.cpu.icache.demand_accesses::total     70768535                       # number of demand (read+write) accesses
system.cpu.icache.overall_accesses::cpu.inst     70768535                       # number of overall (read+write) accesses
system.cpu.icache.overall_accesses::total     70768535                       # number of overall (read+write) accesses
system.cpu.icache.ReadReq_miss_rate::cpu.inst     0.000020                       # miss rate for ReadReq accesses
system.cpu.icache.ReadReq_miss_rate::total     0.000020                       # miss rate for ReadReq accesses
system.cpu.icache.demand_miss_rate::cpu.inst     0.000020                       # miss rate for demand accesses
system.cpu.icache.demand_miss_rate::total     0.000020                       # miss rate for demand accesses
system.cpu.icache.overall_miss_rate::cpu.inst     0.000020                       # miss rate for overall accesses
system.cpu.icache.overall_miss_rate::total     0.000020                       # miss rate for overall accesses
system.cpu.icache.ReadReq_avg_miss_latency::cpu.inst 78209.517045                       # average ReadReq miss latency
system.cpu.icache.ReadReq_avg_miss_latency::total 78209.517045                       # average ReadReq miss latency
system.cpu.icache.demand_avg_miss_latency::cpu.inst 78209.517045                       # average overall miss latency
system.cpu.icache.demand_avg_miss_latency::total 78209.517045                       # average overall miss latency
system.cpu.icache.overall_avg_miss_latency::cpu.inst 78209.517045                       # average overall miss latency
system.cpu.icache.overall_avg_miss_latency::total 78209.517045                       # average overall miss latency
system.cpu.icache.blocked_cycles::no_mshrs            0                       # number of cycles access was blocked
system.cpu.icache.blocked_cycles::no_targets            0                       # number of cycles access was blocked
system.cpu.icache.blocked::no_mshrs                 0                       # number of cycles access was blocked
system.cpu.icache.blocked::no_targets               0                       # number of cycles access was blocked
system.cpu.icache.avg_blocked_cycles::no_mshrs          nan                       # average number of cycles each access was blocked
system.cpu.icache.avg_blocked_cycles::no_targets          nan                       # average number of cycles each access was blocked
system.cpu.icache.fast_writes                       0                       # number of fast writes performed
system.cpu.icache.cache_copies                      0                       # number of cache copies performed
system.cpu.icache.writebacks::writebacks           71                       # number of writebacks
system.cpu.icache.writebacks::total                71                       # number of writebacks
system.cpu.icache.ReadReq_mshr_misses::cpu.inst         1408                       # number of ReadReq MSHR misses
system.cpu.icache.ReadReq_mshr_misses::total         1408                       # number of ReadReq MSHR misses
system.cpu.icache.demand_mshr_misses::cpu.inst         1408                       # number of demand (read+write) MSHR misses
system.cpu.icache.demand_mshr_misses::total         1408                       # number of demand (read+write) MSHR misses
system.cpu.icache.overall_mshr_misses::cpu.inst         1408                       # number of overall MSHR misses
system.cpu.icache.overall_mshr_misses::total         1408                       # number of overall MSHR misses
system.cpu.icache.ReadReq_mshr_miss_latency::cpu.inst    108711000                       # number of ReadReq MSHR miss cycles
system.cpu.icache.ReadReq_mshr_miss_latency::total    108711000                       # number of ReadReq MSHR miss cycles
system.cpu.icache.demand_mshr_miss_latency::cpu.inst    108711000                       # number of demand (read+write) MSHR miss cycles
system.cpu.icache.demand_mshr_miss_latency::total    108711000                       # number of demand (read+write) MSHR miss cycles
system.cpu.icache.overall_mshr_miss_latency::cpu.inst    108711000                       # number of overall MSHR miss cycles
system.cpu.icache.overall_mshr_miss_latency::total    108711000                       # number of overall MSHR miss cycles
system.cpu.icache.ReadReq_mshr_miss_rate::cpu.inst     0.000020                       # mshr miss rate for ReadReq accesses
system.cpu.icache.ReadReq_mshr_miss_rate::total     0.000020                       # mshr miss rate for ReadReq accesses
system.cpu.icache.demand_mshr_miss_rate::cpu.inst     0.000020                       # mshr miss rate for demand accesses
system.cpu.icache.demand_mshr_miss_rate::total     0.000020                       # mshr miss rate for demand accesses
system.cpu.icache.overall_mshr_miss_rate::cpu.inst     0.000020                       # mshr miss rate for overall accesses
system.cpu.icache.overall_mshr_miss_rate::total     0.000020                       # mshr miss rate for overall accesses
system.cpu.icache.ReadReq_avg_mshr_miss_latency::cpu.inst 77209.517045                       # average ReadReq mshr miss latency
system.cpu.icache.ReadReq_avg_mshr_miss_latency::total 77209.517045                       # average ReadReq mshr miss latency
system.cpu.icache.demand_avg_mshr_miss_latency::cpu.inst 77209.517045                       # average overall mshr miss latency
system.cpu.icache.demand_avg_mshr_miss_latency::total 77209.517045                       # average overall mshr miss latency
system.cpu.icache.overall_avg_mshr_miss_latency::cpu.inst 77209.517045                       # average overall mshr miss latency
system.cpu.icache.overall_avg_mshr_miss_latency::total 77209.517045                       # average overall mshr miss latency
system.cpu.icache.no_allocate_misses                0                       # Number of misses that were no-allocate
system.cpu.itb_walker_cache.tags.replacements            0                       # number of replacements
system.cpu.itb_walker_cache.tags.tagsinuse            0                       # Cycle average of tags in use
system.cpu.itb_walker_cache.tags.total_refs            0                       # Total number of references to valid blocks.
system.cpu.itb_walker_cache.tags.sampled_refs            0                       # Sample count of references to valid blocks.
system.cpu.itb_walker_cache.tags.avg_refs          nan                       # Average number of references to valid blocks.
system.cpu.itb_walker_cache.tags.warmup_cycle            0                       # Cycle when the warmup percentage was hit.
system.cpu.itb_walker_cache.tags.tag_accesses            0                       # Number of tag accesses
system.cpu.itb_walker_cache.tags.data_accesses            0                       # Number of data accesses
system.cpu.itb_walker_cache.blocked_cycles::no_mshrs            0                       # number of cycles access was blocked
system.cpu.itb_walker_cache.blocked_cycles::no_targets            0                       # number of cycles access was blocked
system.cpu.itb_walker_cache.blocked::no_mshrs            0                       # number of cycles access was blocked
system.cpu.itb_walker_cache.blocked::no_targets            0                       # number of cycles access was blocked
system.cpu.itb_walker_cache.avg_blocked_cycles::no_mshrs          nan                       # average number of cycles each access was blocked
system.cpu.itb_walker_cache.avg_blocked_cycles::no_targets          nan                       # average number of cycles each access was blocked
system.cpu.itb_walker_cache.fast_writes             0                       # number of fast writes performed
system.cpu.itb_walker_cache.cache_copies            0                       # number of cache copies performed
system.cpu.itb_walker_cache.no_allocate_misses            0                       # Number of misses that were no-allocate
system.l2.tags.replacements                  12833531                       # number of replacements
system.l2.tags.tagsinuse                 127522.551675                       # Cycle average of tags in use
system.l2.tags.total_refs                         595                       # Total number of references to valid blocks.
system.l2.tags.sampled_refs                  12962555                       # Sample count of references to valid blocks.
system.l2.tags.avg_refs                      0.000046                       # Average number of references to valid blocks.
system.l2.tags.warmup_cycle                         0                       # Cycle when the warmup percentage was hit.
system.l2.tags.occ_blocks::writebacks    127503.219658                       # Average occupied blocks per requestor
system.l2.tags.occ_blocks::cpu.inst         15.385349                       # Average occupied blocks per requestor
system.l2.tags.occ_blocks::cpu.data          3.946671                       # Average occupied blocks per requestor
system.l2.tags.occ_percent::writebacks       0.972772                       # Average percentage of cache occupancy
system.l2.tags.occ_percent::cpu.inst         0.000117                       # Average percentage of cache occupancy
system.l2.tags.occ_percent::cpu.data         0.000030                       # Average percentage of cache occupancy
system.l2.tags.occ_percent::total            0.972920                       # Average percentage of cache occupancy
system.l2.tags.occ_task_id_blocks::1024        129024                       # Occupied blocks per task id
system.l2.tags.age_task_id_blocks_1024::0          118                       # Occupied blocks per task id
system.l2.tags.age_task_id_blocks_1024::1         1042                       # Occupied blocks per task id
system.l2.tags.age_task_id_blocks_1024::2        10428                       # Occupied blocks per task id
system.l2.tags.age_task_id_blocks_1024::3       104281                       # Occupied blocks per task id
system.l2.tags.age_task_id_blocks_1024::4        13155                       # Occupied blocks per task id
system.l2.tags.occ_task_id_percent::1024     0.984375                       # Percentage of cache occupancy per task id
system.l2.tags.tag_accesses                  51851154                       # Number of tag accesses
system.l2.tags.data_accesses                 51851154                       # Number of data accesses
system.l2.WritebackDirty_hits::writebacks     12960790                       # number of WritebackDirty hits
system.l2.WritebackDirty_hits::total         12960790                       # number of WritebackDirty hits
system.l2.WritebackClean_hits::writebacks           71                       # number of WritebackClean hits
system.l2.WritebackClean_hits::total               71                       # number of WritebackClean hits
system.l2.ReadExReq_hits::cpu.data                 14                       # number of ReadExReq hits
system.l2.ReadExReq_hits::total                    14                       # number of ReadExReq hits
system.l2.ReadCleanReq_hits::cpu.inst              33                       # number of ReadCleanReq hits
system.l2.ReadCleanReq_hits::total                 33                       # number of ReadCleanReq hits
system.l2.ReadSharedReq_hits::cpu.data             18                       # number of ReadSharedReq hits
system.l2.ReadSharedReq_hits::total                18                       # number of ReadSharedReq hits
system.l2.demand_hits::cpu.inst                    33                       # number of demand (read+write) hits
system.l2.demand_hits::cpu.data                    32                       # number of demand (read+write) hits
system.l2.demand_hits::total                       65                       # number of demand (read+write) hits
system.l2.overall_hits::cpu.inst                   33                       # number of overall hits
system.l2.overall_hits::cpu.data                   32                       # number of overall hits
system.l2.overall_hits::total                      65                       # number of overall hits
system.l2.ReadExReq_misses::cpu.data         12962708                       # number of ReadExReq misses
system.l2.ReadExReq_misses::total            12962708                       # number of ReadExReq misses
system.l2.ReadCleanReq_misses::cpu.inst          1375                       # number of ReadCleanReq misses
system.l2.ReadCleanReq_misses::total             1375                       # number of ReadCleanReq misses
system.l2.ReadSharedReq_misses::cpu.data          483                       # number of ReadSharedReq misses
system.l2.ReadSharedReq_misses::total             483                       # number of ReadSharedReq misses
system.l2.demand_misses::cpu.inst                1375                       # number of demand (read+write) misses
system.l2.demand_misses::cpu.data            12963191                       # number of demand (read+write) misses
system.l2.demand_misses::total               12964566                       # number of demand (read+write) misses
system.l2.overall_misses::cpu.inst               1375                       # number of overall misses
system.l2.overall_misses::cpu.data           12963191                       # number of overall misses
system.l2.overall_misses::total              12964566                       # number of overall misses
system.l2.ReadExReq_miss_latency::cpu.data 982181210000                       # number of ReadExReq miss cycles
system.l2.ReadExReq_miss_latency::total  982181210000                       # number of ReadExReq miss cycles
system.l2.ReadCleanReq_miss_latency::cpu.inst    106252500                       # number of ReadCleanReq miss cycles
system.l2.ReadCleanReq_miss_latency::total    106252500                       # number of ReadCleanReq miss cycles
system.l2.ReadSharedReq_miss_latency::cpu.data     39869500                       # number of ReadSharedReq miss cycles
system.l2.ReadSharedReq_miss_latency::total     39869500                       # number of ReadSharedReq miss cycles
system.l2.demand_miss_latency::cpu.inst     106252500                       # number of demand (read+write) miss cycles
system.l2.demand_miss_latency::cpu.data  982221079500                       # number of demand (read+write) miss cycles
system.l2.demand_miss_latency::total     982327332000                       # number of demand (read+write) miss cycles
system.l2.overall_miss_latency::cpu.inst    106252500                       # number of overall miss cycles
system.l2.overall_miss_latency::cpu.data 982221079500                       # number of overall miss cycles
system.l2.overall_miss_latency::total    982327332000                       # number of overall miss cycles
system.l2.WritebackDirty_accesses::writebacks     12960790                       # number of WritebackDirty accesses(hits+misses)
system.l2.WritebackDirty_accesses::total     12960790                       # number of WritebackDirty accesses(hits+misses)
system.l2.WritebackClean_accesses::writebacks           71                       # number of WritebackClean accesses(hits+misses)
system.l2.WritebackClean_accesses::total           71                       # number of WritebackClean accesses(hits+misses)
system.l2.ReadExReq_accesses::cpu.data       12962722                       # number of ReadExReq accesses(hits+misses)
system.l2.ReadExReq_accesses::total          12962722                       # number of ReadExReq accesses(hits+misses)
system.l2.ReadCleanReq_accesses::cpu.inst         1408                       # number of ReadCleanReq accesses(hits+misses)
system.l2.ReadCleanReq_accesses::total           1408                       # number of ReadCleanReq accesses(hits+misses)
system.l2.ReadSharedReq_accesses::cpu.data          501                       # number of ReadSharedReq accesses(hits+misses)
system.l2.ReadSharedReq_accesses::total           501                       # number of ReadSharedReq accesses(hits+misses)
system.l2.demand_accesses::cpu.inst              1408                       # number of demand (read+write) accesses
system.l2.demand_accesses::cpu.data          12963223                       # number of demand (read+write) accesses
system.l2.demand_accesses::total             12964631                       # number of demand (read+write) accesses
system.l2.overall_accesses::cpu.inst             1408                       # number of overall (read+write) accesses
system.l2.overall_accesses::cpu.data         12963223                       # number of overall (read+write) accesses
system.l2.overall_accesses::total            12964631                       # number of overall (read+write) accesses
system.l2.ReadExReq_miss_rate::cpu.data      0.999999                       # miss rate for ReadExReq accesses
system.l2.ReadExReq_miss_rate::total         0.999999                       # miss rate for ReadExReq accesses
system.l2.ReadCleanReq_miss_rate::cpu.inst     0.976562                       # miss rate for ReadCleanReq accesses
system.l2.ReadCleanReq_miss_rate::total      0.976562                       # miss rate for ReadCleanReq accesses
system.l2.ReadSharedReq_miss_rate::cpu.data     0.964072                       # miss rate for ReadSharedReq accesses
system.l2.ReadSharedReq_miss_rate::total     0.964072                       # miss rate for ReadSharedReq accesses
system.l2.demand_miss_rate::cpu.inst         0.976562                       # miss rate for demand accesses
system.l2.demand_miss_rate::cpu.data         0.999998                       # miss rate for demand accesses
system.l2.demand_miss_rate::total            0.999995                       # miss rate for demand accesses
system.l2.overall_miss_rate::cpu.inst        0.976562                       # miss rate for overall accesses
system.l2.overall_miss_rate::cpu.data        0.999998                       # miss rate for overall accesses
system.l2.overall_miss_rate::total           0.999995                       # miss rate for overall accesses
system.l2.ReadExReq_avg_miss_latency::cpu.data 75769.755054                       # average ReadExReq miss latency
system.l2.ReadExReq_avg_miss_latency::total 75769.755054                       # average ReadExReq miss latency
system.l2.ReadCleanReq_avg_miss_latency::cpu.inst 77274.545455                       # average ReadCleanReq miss latency
system.l2.ReadCleanReq_avg_miss_latency::total 77274.545455                       # average ReadCleanReq miss latency
system.l2.ReadSharedReq_avg_miss_latency::cpu.data 82545.548654                       # average ReadSharedReq miss latency
system.l2.ReadSharedReq_avg_miss_latency::total 82545.548654                       # average ReadSharedReq miss latency
system.l2.demand_avg_miss_latency::cpu.inst 77274.545455                       # average overall miss latency
system.l2.demand_avg_miss_latency::cpu.data 75770.007516                       # average overall miss latency
system.l2.demand_avg_miss_latency::total 75770.167085                       # average overall miss latency
system.l2.overall_avg_miss_latency::cpu.inst 77274.545455                       # average overall miss latency
system.l2.overall_avg_miss_latency::cpu.data 75770.007516                       # average overall miss latency
system.l2.overall_avg_miss_latency::total 75770.167085                       # average overall miss latency
system.l2.blocked_cycles::no_mshrs                  0                       # number of cycles access was blocked
system.l2.blocked_cycles::no_targets                0                       # number of cycles access was blocked
system.l2.blocked::no_mshrs                         0                       # number of cycles access was blocked
system.l2.blocked::no_targets                       0                       # number of cycles access was blocked
system.l2.avg_blocked_cycles::no_mshrs            nan                       # average number of cycles each access was blocked
system.l2.avg_blocked_cycles::no_targets          nan                       # average number of cycles each access was blocked
system.l2.fast_writes                               0                       # number of fast writes performed
system.l2.cache_copies                              0                       # number of cache copies performed
system.l2.writebacks::writebacks             12831737                       # number of writebacks
system.l2.writebacks::total                  12831737                       # number of writebacks
system.l2.CleanEvict_mshr_misses::writebacks            5                       # number of CleanEvict MSHR misses
system.l2.CleanEvict_mshr_misses::total             5                       # number of CleanEvict MSHR misses
system.l2.ReadExReq_mshr_misses::cpu.data     12962708                       # number of ReadExReq MSHR misses
system.l2.ReadExReq_mshr_misses::total       12962708                       # number of ReadExReq MSHR misses
system.l2.ReadCleanReq_mshr_misses::cpu.inst         1375                       # number of ReadCleanReq MSHR misses
system.l2.ReadCleanReq_mshr_misses::total         1375                       # number of ReadCleanReq MSHR misses
system.l2.ReadSharedReq_mshr_misses::cpu.data          483                       # number of ReadSharedReq MSHR misses
system.l2.ReadSharedReq_mshr_misses::total          483                       # number of ReadSharedReq MSHR misses
system.l2.demand_mshr_misses::cpu.inst           1375                       # number of demand (read+write) MSHR misses
system.l2.demand_mshr_misses::cpu.data       12963191                       # number of demand (read+write) MSHR misses
system.l2.demand_mshr_misses::total          12964566                       # number of demand (read+write) MSHR misses
system.l2.overall_mshr_misses::cpu.inst          1375                       # number of overall MSHR misses
system.l2.overall_mshr_misses::cpu.data      12963191                       # number of overall MSHR misses
system.l2.overall_mshr_misses::total         12964566                       # number of overall MSHR misses
system.l2.ReadExReq_mshr_miss_latency::cpu.data 852554130000                       # number of ReadExReq MSHR miss cycles
system.l2.ReadExReq_mshr_miss_latency::total 852554130000                       # number of ReadExReq MSHR miss cycles
system.l2.ReadCleanReq_mshr_miss_latency::cpu.inst     92502500                       # number of ReadCleanReq MSHR miss cycles
system.l2.ReadCleanReq_mshr_miss_latency::total     92502500                       # number of ReadCleanReq MSHR miss cycles
system.l2.ReadSharedReq_mshr_miss_latency::cpu.data     35039500                       # number of ReadSharedReq MSHR miss cycles
system.l2.ReadSharedReq_mshr_miss_latency::total     35039500                       # number of ReadSharedReq MSHR miss cycles
system.l2.demand_mshr_miss_latency::cpu.inst     92502500                       # number of demand (read+write) MSHR miss cycles
system.l2.demand_mshr_miss_latency::cpu.data 852589169500                       # number of demand (read+write) MSHR miss cycles
system.l2.demand_mshr_miss_latency::total 852681672000                       # number of demand (read+write) MSHR miss cycles
system.l2.overall_mshr_miss_latency::cpu.inst     92502500                       # number of overall MSHR miss cycles
system.l2.overall_mshr_miss_latency::cpu.data 852589169500                       # number of overall MSHR miss cycles
system.l2.overall_mshr_miss_latency::total 852681672000                       # number of overall MSHR miss cycles
system.l2.CleanEvict_mshr_miss_rate::writebacks          inf                       # mshr miss rate for CleanEvict accesses
system.l2.CleanEvict_mshr_miss_rate::total          inf                       # mshr miss rate for CleanEvict accesses
system.l2.ReadExReq_mshr_miss_rate::cpu.data     0.999999                       # mshr miss rate for ReadExReq accesses
system.l2.ReadExReq_mshr_miss_rate::total     0.999999                       # mshr miss rate for ReadExReq accesses
system.l2.ReadCleanReq_mshr_miss_rate::cpu.inst     0.976562                       # mshr miss rate for ReadCleanReq accesses
system.l2.ReadCleanReq_mshr_miss_rate::total     0.976562                       # mshr miss rate for ReadCleanReq accesses
system.l2.ReadSharedReq_mshr_miss_rate::cpu.data     0.964072                       # mshr miss rate for ReadSharedReq accesses
system.l2.ReadSharedReq_mshr_miss_rate::total     0.964072                       # mshr miss rate for ReadSharedReq accesses
system.l2.demand_mshr_miss_rate::cpu.inst     0.976562                       # mshr miss rate for demand accesses
system.l2.demand_mshr_miss_rate::cpu.data     0.999998                       # mshr miss rate for demand accesses
system.l2.demand_mshr_miss_rate::total       0.999995                       # mshr miss rate for demand accesses
system.l2.overall_mshr_miss_rate::cpu.inst     0.976562                       # mshr miss rate for overall accesses
system.l2.overall_mshr_miss_rate::cpu.data     0.999998                       # mshr miss rate for overall accesses
system.l2.overall_mshr_miss_rate::total      0.999995                       # mshr miss rate for overall accesses
system.l2.ReadExReq_avg_mshr_miss_latency::cpu.data 65769.755054                       # average ReadExReq mshr miss latency
system.l2.ReadExReq_avg_mshr_miss_latency::total 65769.755054                       # average ReadExReq mshr miss latency
system.l2.ReadCleanReq_avg_mshr_miss_latency::cpu.inst 67274.545455                       # average ReadCleanReq mshr miss latency
system.l2.ReadCleanReq_avg_mshr_miss_latency::total 67274.545455                       # average ReadCleanReq mshr miss latency
system.l2.ReadSharedReq_avg_mshr_miss_latency::cpu.data 72545.548654                       # average ReadSharedReq mshr miss latency
system.l2.ReadSharedReq_avg_mshr_miss_latency::total 72545.548654                       # average ReadSharedReq mshr miss latency
system.l2.demand_avg_mshr_miss_latency::cpu.inst 67274.545455                       # average overall mshr miss latency
system.l2.demand_avg_mshr_miss_latency::cpu.data 65770.007516                       # average overall mshr miss latency
system.l2.demand_avg_mshr_miss_latency::total 65770.167085                       # average overall mshr miss latency
system.l2.overall_avg_mshr_miss_latency::cpu.inst 67274.545455                       # average overall mshr miss latency
system.l2.overall_avg_mshr_miss_latency::cpu.data 65770.007516                       # average overall mshr miss latency
system.l2.overall_avg_mshr_miss_latency::total 65770.167085                       # average overall mshr miss latency
system.l2.no_allocate_misses                        0                       # Number of misses that were no-allocate
system.membus.trans_dist::ReadResp               1858                       # Transaction distribution
system.membus.trans_dist::WritebackDirty     12831737                       # Transaction distribution
system.membus.trans_dist::CleanEvict              420                       # Transaction distribution
system.membus.trans_dist::ReadExReq          12962708                       # Transaction distribution
system.membus.trans_dist::ReadExResp         12962708                       # Transaction distribution
system.membus.trans_dist::ReadSharedReq          1858                       # Transaction distribution
system.membus.pkt_count_system.l2.mem_side::system.mem_ctrls.port     38761289                       # Packet count per connected master and slave (bytes)
system.membus.pkt_count_system.l2.mem_side::total     38761289                       # Packet count per connected master and slave (bytes)
system.membus.pkt_count::total               38761289                       # Packet count per connected master and slave (bytes)
system.membus.pkt_size_system.l2.mem_side::system.mem_ctrls.port    825481696                       # Cumulative packet size per connected master and slave (bytes)
system.membus.pkt_size_system.l2.mem_side::total    825481696                       # Cumulative packet size per connected master and slave (bytes)
system.membus.pkt_size::total               825481696                       # Cumulative packet size per connected master and slave (bytes)
system.membus.snoops                                0                       # Total snoops (count)
system.membus.snoop_fanout::samples          25796723                       # Request fanout histogram
system.membus.snoop_fanout::mean                    0                       # Request fanout histogram
system.membus.snoop_fanout::stdev                   0                       # Request fanout histogram
system.membus.snoop_fanout::underflows              0      0.00%      0.00% # Request fanout histogram
system.membus.snoop_fanout::0                25796723    100.00%    100.00% # Request fanout histogram
system.membus.snoop_fanout::1                       0      0.00%    100.00% # Request fanout histogram
system.membus.snoop_fanout::overflows               0      0.00%    100.00% # Request fanout histogram
system.membus.snoop_fanout::min_value               0                       # Request fanout histogram
system.membus.snoop_fanout::max_value               0                       # Request fanout histogram
system.membus.snoop_fanout::total            25796723                       # Request fanout histogram
system.membus.reqLayer2.occupancy         51460199500                       # Layer occupancy (ticks)
system.membus.reqLayer2.utilization               4.6                       # Layer utilization (%)
system.membus.respLayer1.occupancy        42311735500                       # Layer occupancy (ticks)
system.membus.respLayer1.utilization              3.8                       # Layer utilization (%)
system.tol2bus.snoop_filter.tot_requests     25925877                       # Total number of requests made to the snoop filter.
system.tol2bus.snoop_filter.hit_single_requests     12961246                       # Number of requests hitting in the snoop filter with a single holder of the requested data.
system.tol2bus.snoop_filter.hit_multi_requests            0                       # Number of requests hitting in the snoop filter with multiple (>1) holders of the requested data.
system.tol2bus.snoop_filter.tot_snoops           1379                       # Total number of snoops made to the snoop filter.
system.tol2bus.snoop_filter.hit_single_snoops         1379                       # Number of snoops hitting in the snoop filter with a single holder of the requested data.
system.tol2bus.snoop_filter.hit_multi_snoops            0                       # Number of snoops hitting in the snoop filter with multiple (>1) holders of the requested data.
system.tol2bus.trans_dist::ReadResp              1909                       # Transaction distribution
system.tol2bus.trans_dist::WritebackDirty     25792527                       # Transaction distribution
system.tol2bus.trans_dist::WritebackClean           71                       # Transaction distribution
system.tol2bus.trans_dist::CleanEvict            2179                       # Transaction distribution
system.tol2bus.trans_dist::ReadExReq         12962722                       # Transaction distribution
system.tol2bus.trans_dist::ReadExResp        12962722                       # Transaction distribution
system.tol2bus.trans_dist::ReadCleanReq          1408                       # Transaction distribution
system.tol2bus.trans_dist::ReadSharedReq          501                       # Transaction distribution
system.tol2bus.pkt_count_system.cpu.icache.mem_side::system.l2.cpu_side         2887                       # Packet count per connected master and slave (bytes)
system.tol2bus.pkt_count_system.cpu.dcache.mem_side::system.l2.cpu_side     38887621                       # Packet count per connected master and slave (bytes)
system.tol2bus.pkt_count::total              38890508                       # Packet count per connected master and slave (bytes)
system.tol2bus.pkt_size_system.cpu.icache.mem_side::system.l2.cpu_side        47328                       # Cumulative packet size per connected master and slave (bytes)
system.tol2bus.pkt_size_system.cpu.dcache.mem_side::system.l2.cpu_side    829568416                       # Cumulative packet size per connected master and slave (bytes)
system.tol2bus.pkt_size::total              829615744                       # Cumulative packet size per connected master and slave (bytes)
system.tol2bus.snoops                        12833531                       # Total snoops (count)
system.tol2bus.snoop_fanout::samples         25798162                       # Request fanout histogram
system.tol2bus.snoop_fanout::mean            0.000053                       # Request fanout histogram
system.tol2bus.snoop_fanout::stdev           0.007311                       # Request fanout histogram
system.tol2bus.snoop_fanout::underflows             0      0.00%      0.00% # Request fanout histogram
system.tol2bus.snoop_fanout::0               25796783     99.99%     99.99% # Request fanout histogram
system.tol2bus.snoop_fanout::1                   1379      0.01%    100.00% # Request fanout histogram
system.tol2bus.snoop_fanout::2                      0      0.00%    100.00% # Request fanout histogram
system.tol2bus.snoop_fanout::3                      0      0.00%    100.00% # Request fanout histogram
system.tol2bus.snoop_fanout::4                      0      0.00%    100.00% # Request fanout histogram
system.tol2bus.snoop_fanout::overflows              0      0.00%    100.00% # Request fanout histogram
system.tol2bus.snoop_fanout::min_value              0                       # Request fanout histogram
system.tol2bus.snoop_fanout::max_value              1                       # Request fanout histogram
system.tol2bus.snoop_fanout::total           25798162                       # Request fanout histogram
system.tol2bus.reqLayer0.occupancy        19443369000                       # Layer occupancy (ticks)
system.tol2bus.reqLayer0.utilization              1.7                       # Layer utilization (%)
system.tol2bus.respLayer0.occupancy           1408000                       # Layer occupancy (ticks)
system.tol2bus.respLayer0.utilization             0.0                       # Layer utilization (%)
system.tol2bus.respLayer1.occupancy       12963223000                       # Layer occupancy (ticks)
system.tol2bus.respLayer1.utilization             1.2                       # Layer utilization (%)

---------- End Simulation Statistics   ----------
