
---------- Begin Simulation Statistics ----------
sim_seconds                                  1.125709                       # Number of seconds simulated
sim_ticks                                1125709234500                       # Number of ticks simulated
final_tick                               1125709234500                       # Number of ticks from beginning of simulation (restored from checkpoints and never reset)
sim_freq                                 1000000000000                       # Frequency of simulated ticks
host_inst_rate                                 178912                       # Simulator instruction rate (inst/s)
host_op_rate                                   343444                       # Simulator op (including micro ops) rate (op/s)
host_tick_rate                             4028056819                       # Simulator tick rate (ticks/s)
host_mem_usage                                 849888                       # Number of bytes of host memory used
host_seconds                                   279.47                       # Real time elapsed on the host
sim_insts                                    50000000                       # Number of instructions simulated
sim_ops                                      95981252                       # Number of ops (including micro ops) simulated
system.voltage_domain.voltage                       1                       # Voltage in Volts
system.clk_domain.clock                          1000                       # Clock period in ticks
system.mem_ctrls.bytes_read::cpu.inst           44000                       # Number of bytes read from this memory
system.mem_ctrls.bytes_read::cpu.data       414822112                       # Number of bytes read from this memory
system.mem_ctrls.bytes_read::total          414866112                       # Number of bytes read from this memory
system.mem_ctrls.bytes_inst_read::cpu.inst        44000                       # Number of instructions bytes read from this memory
system.mem_ctrls.bytes_inst_read::total         44000                       # Number of instructions bytes read from this memory
system.mem_ctrls.bytes_written::writebacks    410615584                       # Number of bytes written to this memory
system.mem_ctrls.bytes_written::total       410615584                       # Number of bytes written to this memory
system.mem_ctrls.num_reads::cpu.inst             1375                       # Number of read requests responded to by this memory
system.mem_ctrls.num_reads::cpu.data         12963191                       # Number of read requests responded to by this memory
system.mem_ctrls.num_reads::total            12964566                       # Number of read requests responded to by this memory
system.mem_ctrls.num_writes::writebacks      12831737                       # Number of write requests responded to by this memory
system.mem_ctrls.num_writes::total           12831737                       # Number of write requests responded to by this memory
system.mem_ctrls.bw_read::cpu.inst              39086                       # Total read bandwidth from this memory (bytes/s)
system.mem_ctrls.bw_read::cpu.data          368498453                       # Total read bandwidth from this memory (bytes/s)
system.mem_ctrls.bw_read::total             368537540                       # Total read bandwidth from this memory (bytes/s)
system.mem_ctrls.bw_inst_read::cpu.inst         39086                       # Instruction read bandwidth from this memory (bytes/s)
system.mem_ctrls.bw_inst_read::total            39086                       # Instruction read bandwidth from this memory (bytes/s)
system.mem_ctrls.bw_write::writebacks       364761673                       # Write bandwidth from this memory (bytes/s)
system.mem_ctrls.bw_write::total            364761673                       # Write bandwidth from this memory (bytes/s)
system.mem_ctrls.bw_total::writebacks       364761673                       # Total bandwidth to/from this memory (bytes/s)
system.mem_ctrls.bw_total::cpu.inst             39086                       # Total bandwidth to/from this memory (bytes/s)
system.mem_ctrls.bw_total::cpu.data         368498453                       # Total bandwidth to/from this memory (bytes/s)
system.mem_ctrls.bw_total::total            733299213                       # Total bandwidth to/from this memory (bytes/s)
system.mem_ctrls.readReqs                    12964566                       # Number of read requests accepted
system.mem_ctrls.writeReqs                   12831737                       # Number of write requests accepted
system.mem_ctrls.readBursts                  12964566                       # Number of DRAM read bursts, including those serviced by the write queue
system.mem_ctrls.writeBursts                 12831737                       # Number of DRAM write bursts, including those merged in the write queue
system.mem_ctrls.bytesReadDRAM              829732224                       # Total number of bytes read from DRAM
system.mem_ctrls.bytesReadWrQ                       0                       # Total number of bytes read from write queue
system.mem_ctrls.bytesWritten               410658944                       # Total number of bytes written to DRAM
system.mem_ctrls.bytesReadSys               414866112                       # Total read bytes from the system interface side
system.mem_ctrls.bytesWrittenSys            410615584                       # Total written bytes from the system interface side
system.mem_ctrls.servicedByWrQ                      0                       # Number of DRAM read bursts serviced by the write queue
system.mem_ctrls.mergedWrBursts               6415163                       # Number of DRAM write bursts merged with an existing one
system.mem_ctrls.neitherReadNorWriteReqs          466                       # Number of requests that are neither read nor write
system.mem_ctrls.perBankRdBursts::0            810209                       # Per bank write bursts
system.mem_ctrls.perBankRdBursts::1            810105                       # Per bank write bursts
system.mem_ctrls.perBankRdBursts::2            810076                       # Per bank write bursts
system.mem_ctrls.perBankRdBursts::3            810053                       # Per bank write bursts
system.mem_ctrls.perBankRdBursts::4            810222                       # Per bank write bursts
system.mem_ctrls.perBankRdBursts::5            810157                       # Per bank write bursts
system.mem_ctrls.perBankRdBursts::6            809777                       # Per bank write bursts
system.mem_ctrls.perBankRdBursts::7            809947                       # Per bank write bursts
system.mem_ctrls.perBankRdBursts::8            809965                       # Per bank write bursts
system.mem_ctrls.perBankRdBursts::9            810188                       # Per bank write bursts
system.mem_ctrls.perBankRdBursts::10           810421                       # Per bank write bursts
system.mem_ctrls.perBankRdBursts::11           810714                       # Per bank write bursts
system.mem_ctrls.perBankRdBursts::12           810668                       # Per bank write bursts
system.mem_ctrls.perBankRdBursts::13           810711                       # Per bank write bursts
system.mem_ctrls.perBankRdBursts::14           810675                       # Per bank write bursts
system.mem_ctrls.perBankRdBursts::15           810678                       # Per bank write bursts
system.mem_ctrls.perBankWrBursts::0            400928                       # Per bank write bursts
system.mem_ctrls.perBankWrBursts::1            400925                       # Per bank write bursts
system.mem_ctrls.perBankWrBursts::2            400946                       # Per bank write bursts
system.mem_ctrls.perBankWrBursts::3            400907                       # Per bank write bursts
system.mem_ctrls.perBankWrBursts::4            401001                       # Per bank write bursts
system.mem_ctrls.perBankWrBursts::5            400927                       # Per bank write bursts
system.mem_ctrls.perBankWrBursts::6            400798                       # Per bank write bursts
system.mem_ctrls.perBankWrBursts::7            400846                       # Per bank write bursts
system.mem_ctrls.perBankWrBursts::8            400915                       # Per bank write bursts
system.mem_ctrls.perBankWrBursts::9            401009                       # Per bank write bursts
system.mem_ctrls.perBankWrBursts::10           401146                       # Per bank write bursts
system.mem_ctrls.perBankWrBursts::11           401278                       # Per bank write bursts
system.mem_ctrls.perBankWrBursts::12           401240                       # Per bank write bursts
system.mem_ctrls.perBankWrBursts::13           401243                       # Per bank write bursts
system.mem_ctrls.perBankWrBursts::14           401239                       # Per bank write bursts
system.mem_ctrls.perBankWrBursts::15           401198                       # Per bank write bursts
system.mem_ctrls.numRdRetry                         0                       # Number of times read queue was full causing retry
system.mem_ctrls.numWrRetry                         0                       # Number of times write queue was full causing retry
system.mem_ctrls.totGap                  1125709216500                       # Total gap between requests
system.mem_ctrls.readPktSize::0                     0                       # Read request sizes (log2)
system.mem_ctrls.readPktSize::1                     0                       # Read request sizes (log2)
system.mem_ctrls.readPktSize::2                     0                       # Read request sizes (log2)
system.mem_ctrls.readPktSize::3                     0                       # Read request sizes (log2)
system.mem_ctrls.readPktSize::4                     0                       # Read request sizes (log2)
system.mem_ctrls.readPktSize::5              12964566                       # Read request sizes (log2)
system.mem_ctrls.readPktSize::6                     0                       # Read request sizes (log2)
system.mem_ctrls.writePktSize::0                    0                       # Write request sizes (log2)
system.mem_ctrls.writePktSize::1                    0                       # Write request sizes (log2)
system.mem_ctrls.writePktSize::2                    0                       # Write request sizes (log2)
system.mem_ctrls.writePktSize::3                    0                       # Write request sizes (log2)
system.mem_ctrls.writePktSize::4                    0                       # Write request sizes (log2)
system.mem_ctrls.writePktSize::5             12831737                       # Write request sizes (log2)
system.mem_ctrls.writePktSize::6                    0                       # Write request sizes (log2)
system.mem_ctrls.rdQLenPdf::0                12964565                       # What read queue length does an incoming req see
system.mem_ctrls.rdQLenPdf::1                       1                       # What read queue length does an incoming req see
system.mem_ctrls.rdQLenPdf::2                       0                       # What read queue length does an incoming req see
system.mem_ctrls.rdQLenPdf::3                       0                       # What read queue length does an incoming req see
system.mem_ctrls.rdQLenPdf::4                       0                       # What read queue length does an incoming req see
system.mem_ctrls.rdQLenPdf::5                       0                       # What read queue length does an incoming req see
system.mem_ctrls.rdQLenPdf::6                       0                       # What read queue length does an incoming req see
system.mem_ctrls.rdQLenPdf::7                       0                       # What read queue length does an incoming req see
system.mem_ctrls.rdQLenPdf::8                       0                       # What read queue length does an incoming req see
system.mem_ctrls.rdQLenPdf::9                       0                       # What read queue length does an incoming req see
system.mem_ctrls.rdQLenPdf::10                      0                       # What read queue length does an incoming req see
system.mem_ctrls.rdQLenPdf::11                      0                       # What read queue length does an incoming req see
system.mem_ctrls.rdQLenPdf::12                      0                       # What read queue length does an incoming req see
system.mem_ctrls.rdQLenPdf::13                      0                       # What read queue length does an incoming req see
system.mem_ctrls.rdQLenPdf::14                      0                       # What read queue length does an incoming req see
system.mem_ctrls.rdQLenPdf::15                      0                       # What read queue length does an incoming req see
system.mem_ctrls.rdQLenPdf::16                      0                       # What read queue length does an incoming req see
system.mem_ctrls.rdQLenPdf::17                      0                       # What read queue length does an incoming req see
system.mem_ctrls.rdQLenPdf::18                      0                       # What read queue length does an incoming req see
system.mem_ctrls.rdQLenPdf::19                      0                       # What read queue length does an incoming req see
system.mem_ctrls.rdQLenPdf::20                      0                       # What read queue length does an incoming req see
system.mem_ctrls.rdQLenPdf::21                      0                       # What read queue length does an incoming req see
system.mem_ctrls.rdQLenPdf::22                      0                       # What read queue length does an incoming req see
system.mem_ctrls.rdQLenPdf::23                      0                       # What read queue length does an incoming req see
system.mem_ctrls.rdQLenPdf::24                      0                       # What read queue length does an incoming req see
system.mem_ctrls.rdQLenPdf::25                      0                       # What read queue length does an incoming req see
system.mem_ctrls.rdQLenPdf::26                      0                       # What read queue length does an incoming req see
system.mem_ctrls.rdQLenPdf::27                      0                       # What read queue length does an incoming req see
system.mem_ctrls.rdQLenPdf::28                      0                       # What read queue length does an incoming req see
system.mem_ctrls.rdQLenPdf::29                      0                       # What read queue length does an incoming req see
system.mem_ctrls.rdQLenPdf::30                      0                       # What read queue length does an incoming req see
system.mem_ctrls.rdQLenPdf::31                      0                       # What read queue length does an incoming req see
system.mem_ctrls.wrQLenPdf::0                       1                       # What write queue length does an incoming req see
system.mem_ctrls.wrQLenPdf::1                       1                       # What write queue length does an incoming req see
system.mem_ctrls.wrQLenPdf::2                       1                       # What write queue length does an incoming req see
system.mem_ctrls.wrQLenPdf::3                       1                       # What write queue length does an incoming req see
system.mem_ctrls.wrQLenPdf::4                       1                       # What write queue length does an incoming req see
system.mem_ctrls.wrQLenPdf::5                       1                       # What write queue length does an incoming req see
system.mem_ctrls.wrQLenPdf::6                       1                       # What write queue length does an incoming req see
system.mem_ctrls.wrQLenPdf::7                       1                       # What write queue length does an incoming req see
system.mem_ctrls.wrQLenPdf::8                       1                       # What write queue length does an incoming req see
system.mem_ctrls.wrQLenPdf::9                       1                       # What write queue length does an incoming req see
system.mem_ctrls.wrQLenPdf::10                      1                       # What write queue length does an incoming req see
system.mem_ctrls.wrQLenPdf::11                      1                       # What write queue length does an incoming req see
system.mem_ctrls.wrQLenPdf::12                      1                       # What write queue length does an incoming req see
system.mem_ctrls.wrQLenPdf::13                      1                       # What write queue length does an incoming req see
system.mem_ctrls.wrQLenPdf::14                      1                       # What write queue length does an incoming req see
system.mem_ctrls.wrQLenPdf::15                     17                       # What write queue length does an incoming req see
system.mem_ctrls.wrQLenPdf::16                     18                       # What write queue length does an incoming req see
system.mem_ctrls.wrQLenPdf::17                 401028                       # What write queue length does an incoming req see
system.mem_ctrls.wrQLenPdf::18                 401033                       # What write queue length does an incoming req see
system.mem_ctrls.wrQLenPdf::19                 401033                       # What write queue length does an incoming req see
system.mem_ctrls.wrQLenPdf::20                 401033                       # What write queue length does an incoming req see
system.mem_ctrls.wrQLenPdf::21                 401034                       # What write queue length does an incoming req see
system.mem_ctrls.wrQLenPdf::22                 401034                       # What write queue length does an incoming req see
system.mem_ctrls.wrQLenPdf::23                 401033                       # What write queue length does an incoming req see
system.mem_ctrls.wrQLenPdf::24                 401033                       # What write queue length does an incoming req see
system.mem_ctrls.wrQLenPdf::25                 401033                       # What write queue length does an incoming req see
system.mem_ctrls.wrQLenPdf::26                 401034                       # What write queue length does an incoming req see
system.mem_ctrls.wrQLenPdf::27                 401034                       # What write queue length does an incoming req see
system.mem_ctrls.wrQLenPdf::28                 401033                       # What write queue length does an incoming req see
system.mem_ctrls.wrQLenPdf::29                 401033                       # What write queue length does an incoming req see
system.mem_ctrls.wrQLenPdf::30                 401032                       # What write queue length does an incoming req see
system.mem_ctrls.wrQLenPdf::31                 401032                       # What write queue length does an incoming req see
system.mem_ctrls.wrQLenPdf::32                 401032                       # What write queue length does an incoming req see
system.mem_ctrls.wrQLenPdf::33                      0                       # What write queue length does an incoming req see
system.mem_ctrls.wrQLenPdf::34                      0                       # What write queue length does an incoming req see
system.mem_ctrls.wrQLenPdf::35                      0                       # What write queue length does an incoming req see
system.mem_ctrls.wrQLenPdf::36                      0                       # What write queue length does an incoming req see
system.mem_ctrls.wrQLenPdf::37                      0                       # What write queue length does an incoming req see
system.mem_ctrls.wrQLenPdf::38                      0                       # What write queue length does an incoming req see
system.mem_ctrls.wrQLenPdf::39                      0                       # What write queue length does an incoming req see
system.mem_ctrls.wrQLenPdf::40                      0                       # What write queue length does an incoming req see
system.mem_ctrls.wrQLenPdf::41                      0                       # What write queue length does an incoming req see
system.mem_ctrls.wrQLenPdf::42                      0                       # What write queue length does an incoming req see
system.mem_ctrls.wrQLenPdf::43                      0                       # What write queue length does an incoming req see
system.mem_ctrls.wrQLenPdf::44                      0                       # What write queue length does an incoming req see
system.mem_ctrls.wrQLenPdf::45                      0                       # What write queue length does an incoming req see
system.mem_ctrls.wrQLenPdf::46                      0                       # What write queue length does an incoming req see
system.mem_ctrls.wrQLenPdf::47                      0                       # What write queue length does an incoming req see
system.mem_ctrls.wrQLenPdf::48                      0                       # What write queue length does an incoming req see
system.mem_ctrls.wrQLenPdf::49                      0                       # What write queue length does an incoming req see
system.mem_ctrls.wrQLenPdf::50                      0                       # What write queue length does an incoming req see
system.mem_ctrls.wrQLenPdf::51                      0                       # What write queue length does an incoming req see
system.mem_ctrls.wrQLenPdf::52                      0                       # What write queue length does an incoming req see
system.mem_ctrls.wrQLenPdf::53                      0                       # What write queue length does an incoming req see
system.mem_ctrls.wrQLenPdf::54                      0                       # What write queue length does an incoming req see
system.mem_ctrls.wrQLenPdf::55                      0                       # What write queue length does an incoming req see
system.mem_ctrls.wrQLenPdf::56                      0                       # What write queue length does an incoming req see
system.mem_ctrls.wrQLenPdf::57                      0                       # What write queue length does an incoming req see
system.mem_ctrls.wrQLenPdf::58                      0                       # What write queue length does an incoming req see
system.mem_ctrls.wrQLenPdf::59                      0                       # What write queue length does an incoming req see
system.mem_ctrls.wrQLenPdf::60                      0                       # What write queue length does an incoming req see
system.mem_ctrls.wrQLenPdf::61                      0                       # What write queue length does an incoming req see
system.mem_ctrls.wrQLenPdf::62                      0                       # What write queue length does an incoming req see
system.mem_ctrls.wrQLenPdf::63                      0                       # What write queue length does an incoming req see
system.mem_ctrls.bytesPerActivate::samples      1430506                       # Bytes accessed per row activation
system.mem_ctrls.bytesPerActivate::mean    867.098965                       # Bytes accessed per row activation
system.mem_ctrls.bytesPerActivate::gmean   770.181038                       # Bytes accessed per row activation
system.mem_ctrls.bytesPerActivate::stdev   283.489089                       # Bytes accessed per row activation
system.mem_ctrls.bytesPerActivate::0-127        39923      2.79%      2.79% # Bytes accessed per row activation
system.mem_ctrls.bytesPerActivate::128-255        45972      3.21%      6.00% # Bytes accessed per row activation
system.mem_ctrls.bytesPerActivate::256-383        62784      4.39%     10.39% # Bytes accessed per row activation
system.mem_ctrls.bytesPerActivate::384-511        64196      4.49%     14.88% # Bytes accessed per row activation
system.mem_ctrls.bytesPerActivate::512-639        57201      4.00%     18.88% # Bytes accessed per row activation
system.mem_ctrls.bytesPerActivate::640-767        56749      3.97%     22.85% # Bytes accessed per row activation
system.mem_ctrls.bytesPerActivate::768-895        47809      3.34%     26.19% # Bytes accessed per row activation
system.mem_ctrls.bytesPerActivate::896-1023        54845      3.83%     30.02% # Bytes accessed per row activation
system.mem_ctrls.bytesPerActivate::1024-1151      1001027     69.98%    100.00% # Bytes accessed per row activation
system.mem_ctrls.bytesPerActivate::total      1430506                       # Bytes accessed per row activation
system.mem_ctrls.rdPerTurnAround::samples       401032                       # Reads before turning the bus around for writes
system.mem_ctrls.rdPerTurnAround::mean      32.327951                       # Reads before turning the bus around for writes
system.mem_ctrls.rdPerTurnAround::gmean     32.005094                       # Reads before turning the bus around for writes
system.mem_ctrls.rdPerTurnAround::stdev    125.831135                       # Reads before turning the bus around for writes
system.mem_ctrls.rdPerTurnAround::0-4095       401028    100.00%    100.00% # Reads before turning the bus around for writes
system.mem_ctrls.rdPerTurnAround::4096-8191            1      0.00%    100.00% # Reads before turning the bus around for writes
system.mem_ctrls.rdPerTurnAround::8192-12287            1      0.00%    100.00% # Reads before turning the bus around for writes
system.mem_ctrls.rdPerTurnAround::36864-40959            1      0.00%    100.00% # Reads before turning the bus around for writes
system.mem_ctrls.rdPerTurnAround::65536-69631            1      0.00%    100.00% # Reads before turning the bus around for writes
system.mem_ctrls.rdPerTurnAround::total        401032                       # Reads before turning the bus around for writes
system.mem_ctrls.wrPerTurnAround::samples       401032                       # Writes before turning the bus around for reads
system.mem_ctrls.wrPerTurnAround::mean      16.000085                       # Writes before turning the bus around for reads
system.mem_ctrls.wrPerTurnAround::gmean     16.000080                       # Writes before turning the bus around for reads
system.mem_ctrls.wrPerTurnAround::stdev      0.013211                       # Writes before turning the bus around for reads
system.mem_ctrls.wrPerTurnAround::16           401015    100.00%    100.00% # Writes before turning the bus around for reads
system.mem_ctrls.wrPerTurnAround::17                1      0.00%    100.00% # Writes before turning the bus around for reads
system.mem_ctrls.wrPerTurnAround::18               15      0.00%    100.00% # Writes before turning the bus around for reads
system.mem_ctrls.wrPerTurnAround::19                1      0.00%    100.00% # Writes before turning the bus around for reads
system.mem_ctrls.wrPerTurnAround::total        401032                       # Writes before turning the bus around for reads
system.mem_ctrls.totQLat                  93863866750                       # Total ticks spent queuing
system.mem_ctrls.totMemAccLat            336949479250                       # Total ticks spent from burst creation until serviced by the DRAM
system.mem_ctrls.totBusLat                64822830000                       # Total ticks spent in databus transfers
system.mem_ctrls.avgQLat                      7240.03                       # Average queueing delay per DRAM burst
system.mem_ctrls.avgBusLat                    5000.00                       # Average bus latency per DRAM burst
system.mem_ctrls.avgMemAccLat                25990.03                       # Average memory access latency per DRAM burst
system.mem_ctrls.avgRdBW                       737.08                       # Average DRAM read bandwidth in MiByte/s
system.mem_ctrls.avgWrBW                       364.80                       # Average achieved write bandwidth in MiByte/s
system.mem_ctrls.avgRdBWSys                    368.54                       # Average system read bandwidth in MiByte/s
system.mem_ctrls.avgWrBWSys                    364.76                       # Average system write bandwidth in MiByte/s
system.mem_ctrls.peakBW                      12800.00                       # Theoretical peak bandwidth in MiByte/s
system.mem_ctrls.busUtil                         8.61                       # Data bus utilization in percentage
system.mem_ctrls.busUtilRead                     5.76                       # Data bus utilization in percentage for reads
system.mem_ctrls.busUtilWrite                    2.85                       # Data bus utilization in percentage for writes
system.mem_ctrls.avgRdQLen                       1.00                       # Average read queue length when enqueuing
system.mem_ctrls.avgWrQLen                      25.67                       # Average write queue length when enqueuing
system.mem_ctrls.readRowHits                 11983936                       # Number of row buffer hits during reads
system.mem_ctrls.writeRowHits                 5966669                       # Number of row buffer hits during writes
system.mem_ctrls.readRowHitRate                 92.44                       # Row buffer hit rate for reads
system.mem_ctrls.writeRowHitRate                92.99                       # Row buffer hit rate for writes
system.mem_ctrls.avgGap                      43638.39                       # Average gap between requests
system.mem_ctrls.pageHitRate                    92.62                       # Row buffer hit rate, read and write combined
system.mem_ctrls_0.actEnergy               5407010280                       # Energy for activate commands per rank (pJ)
system.mem_ctrls_0.preEnergy               2950253625                       # Energy for precharge commands per rank (pJ)
system.mem_ctrls_0.readEnergy             50548024800                       # Energy for read commands per rank (pJ)
system.mem_ctrls_0.writeEnergy            20783161440                       # Energy for write commands per rank (pJ)
system.mem_ctrls_0.refreshEnergy          73525570560                       # Energy for refresh commands per rank (pJ)
system.mem_ctrls_0.actBackEnergy         390471643755                       # Energy for active background per rank (pJ)
system.mem_ctrls_0.preBackEnergy         332904090000                       # Energy for precharge background per rank (pJ)
system.mem_ctrls_0.totalEnergy           876589754460                       # Total energy per rank (pJ)
system.mem_ctrls_0.averagePower            778.702818                       # Core power per rank (mW)
system.mem_ctrls_0.memoryStateTime::IDLE 545345706500                       # Time in different power states
system.mem_ctrls_0.memoryStateTime::REF   37589760000                       # Time in different power states
system.mem_ctrls_0.memoryStateTime::PRE_PDN            0                       # Time in different power states
system.mem_ctrls_0.memoryStateTime::ACT  542772663500                       # Time in different power states
system.mem_ctrls_0.memoryStateTime::ACT_PDN            0                       # Time in different power states
system.mem_ctrls_1.actEnergy               5407584840                       # Energy for activate commands per rank (pJ)
system.mem_ctrls_1.preEnergy               2950567125                       # Energy for precharge commands per rank (pJ)
system.mem_ctrls_1.readEnergy             50575200000                       # Energy for read commands per rank (pJ)
system.mem_ctrls_1.writeEnergy            20795952960                       # Energy for write commands per rank (pJ)
system.mem_ctrls_1.refreshEnergy          73525570560                       # Energy for refresh commands per rank (pJ)
system.mem_ctrls_1.actBackEnergy         390643355970                       # Energy for active background per rank (pJ)
system.mem_ctrls_1.preBackEnergy         332753473500                       # Energy for precharge background per rank (pJ)
system.mem_ctrls_1.totalEnergy           876651704955                       # Total energy per rank (pJ)
system.mem_ctrls_1.averagePower            778.757841                       # Core power per rank (mW)
system.mem_ctrls_1.memoryStateTime::IDLE 545089804500                       # Time in different power states
system.mem_ctrls_1.memoryStateTime::REF   37589760000                       # Time in different power states
system.mem_ctrls_1.memoryStateTime::PRE_PDN            0                       # Time in different power states
system.mem_ctrls_1.memoryStateTime::ACT  543027893500                       # Time in different power states
system.mem_ctrls_1.memoryStateTime::ACT_PDN            0                       # Time in different power states
system.cpu.branchPred.lookups                 6543945                       # Number of BP lookups
system.cpu.branchPred.condPredicted           6543945                       # Number of conditional branches predicted
system.cpu.branchPred.condIncorrect              3470                       # Number of conditional branches incorrect
system.cpu.branchPred.BTBLookups              6535561                       # Number of BTB lookups
system.cpu.branchPred.BTBHits                 6527013                       # Number of BTB hits
system.cpu.branchPred.BTBCorrect                    0                       # Number of correct BTB predictions (this stat may not work properly.
system.cpu.branchPred.BTBHitPct             99.869208                       # BTB Hit Percentage
system.cpu.branchPred.BTBMissPct             0.130792                       # BTB Miss Percentage
system.cpu.branchPred.usedRAS                    3769                       # Number of times the RAS was used to get a target.
system.cpu.branchPred.RASInCorrect                227                       # Number of incorrect RAS predictions.
system.cpu_voltage_domain.voltage                   1                       # Voltage in Volts
system.cpu_clk_domain.clock                       500                       # Clock period in ticks
system.cpu.apic_clk_domain.clock                 8000                       # Clock period in ticks
system.cpu.workload.num_syscalls                  108                       # Number of system calls
system.cpu.numCycles                       2251418469                       # number of cpu cycles simulated
system.cpu.numWorkItemsStarted                      0                       # number of work items this cpu started
system.cpu.numWorkItemsCompleted                    0                       # number of work items this cpu completed
system.cpu.committedInsts                    50000000                       # Number of instructions committed
system.cpu.committedOps                      95981252                       # Number of ops (including micro ops) committed
system.cpu.num_int_alu_accesses              95975786                       # Number of integer alu accesses
system.cpu.num_fp_alu_accesses               51833399                       # Number of float alu accesses
system.cpu.num_func_calls                        7602                       # number of times a function call or return occured
system.cpu.num_conditional_control_insts      6532565                       # number of instructions that are conditional controls
system.cpu.num_int_insts                     95975786                       # number of integer instructions
system.cpu.num_fp_insts                      51833399                       # number of float instructions
system.cpu.num_int_register_reads           219093281                       # number of times the integer registers were read
system.cpu.num_int_register_writes           37404609                       # number of times the integer registers were written
system.cpu.num_fp_register_reads             51836935                       # number of times the floating registers were read
system.cpu.num_fp_register_writes                4221                       # number of times the floating registers were written
system.cpu.num_cc_register_reads             34496136                       # number of times the CC registers were read
system.cpu.num_cc_register_writes            29304313                       # number of times the CC registers were written
system.cpu.num_mem_refs                      53378426                       # number of memory refs
system.cpu.num_load_insts                     1350125                       # Number of load instructions
system.cpu.num_store_insts                   52028301                       # Number of store instructions
system.cpu.num_idle_cycles                          0                       # Number of idle cycles
system.cpu.num_busy_cycles                 2251418469                       # Number of busy cycles
system.cpu.not_idle_fraction                        1                       # Percentage of non-idle cycles
system.cpu.idle_fraction                            0                       # Percentage of idle cycles
system.cpu.Branches                           6543945                       # Number of branches fetched
system.cpu.predictedBranches                  6530782                       # Number of branches predicted as taken
system.cpu.BranchMispred                         3470                       # Number of branch mispredictions
system.cpu.numBranchMispreadPercent          0.053026                       # Number of Branch Mispread Percent
system.cpu.op_class::No_OpClass                  1614      0.00%      0.00% # Class of executed instruction
system.cpu.op_class::IntAlu                  42596796     44.38%     44.38% # Class of executed instruction
system.cpu.op_class::IntMult                      725      0.00%     44.38% # Class of executed instruction
system.cpu.op_class::IntDiv                        21      0.00%     44.38% # Class of executed instruction
system.cpu.op_class::FloatAdd                    3670      0.00%     44.39% # Class of executed instruction
system.cpu.op_class::FloatCmp                       0      0.00%     44.39% # Class of executed instruction
system.cpu.op_class::FloatCvt                       0      0.00%     44.39% # Class of executed instruction
system.cpu.op_class::FloatMult                      0      0.00%     44.39% # Class of executed instruction
system.cpu.op_class::FloatDiv                       0      0.00%     44.39% # Class of executed instruction
system.cpu.op_class::FloatSqrt                      0      0.00%     44.39% # Class of executed instruction
system.cpu.op_class::SimdAdd                        0      0.00%     44.39% # Class of executed instruction
system.cpu.op_class::SimdAddAcc                     0      0.00%     44.39% # Class of executed instruction
system.cpu.op_class::SimdAlu                        0      0.00%     44.39% # Class of executed instruction
system.cpu.op_class::SimdCmp                        0      0.00%     44.39% # Class of executed instruction
system.cpu.op_class::SimdCvt                        0      0.00%     44.39% # Class of executed instruction
system.cpu.op_class::SimdMisc                       0      0.00%     44.39% # Class of executed instruction
system.cpu.op_class::SimdMult                       0      0.00%     44.39% # Class of executed instruction
system.cpu.op_class::SimdMultAcc                    0      0.00%     44.39% # Class of executed instruction
system.cpu.op_class::SimdShift                      0      0.00%     44.39% # Class of executed instruction
system.cpu.op_class::SimdShiftAcc                   0      0.00%     44.39% # Class of executed instruction
system.cpu.op_class::SimdSqrt                       0      0.00%     44.39% # Class of executed instruction
system.cpu.op_class::SimdFloatAdd                   0      0.00%     44.39% # Class of executed instruction
system.cpu.op_class::SimdFloatAlu                   0      0.00%     44.39% # Class of executed instruction
system.cpu.op_class::SimdFloatCmp                   0      0.00%     44.39% # Class of executed instruction
system.cpu.op_class::SimdFloatCvt                   0      0.00%     44.39% # Class of executed instruction
system.cpu.op_class::SimdFloatDiv                   0      0.00%     44.39% # Class of executed instruction
system.cpu.op_class::SimdFloatMisc                  0      0.00%     44.39% # Class of executed instruction
system.cpu.op_class::SimdFloatMult                  0      0.00%     44.39% # Class of executed instruction
system.cpu.op_class::SimdFloatMultAcc               0      0.00%     44.39% # Class of executed instruction
system.cpu.op_class::SimdFloatSqrt                  0      0.00%     44.39% # Class of executed instruction
system.cpu.op_class::MemRead                  1350125      1.41%     45.79% # Class of executed instruction
system.cpu.op_class::MemWrite                52028301     54.21%    100.00% # Class of executed instruction
system.cpu.op_class::IprAccess                      0      0.00%    100.00% # Class of executed instruction
system.cpu.op_class::InstPrefetch                   0      0.00%    100.00% # Class of executed instruction
system.cpu.op_class::total                   95981252                       # Class of executed instruction
system.cpu.dcache.tags.replacements          12961174                       # number of replacements
system.cpu.dcache.tags.tagsinuse          2047.156115                       # Cycle average of tags in use
system.cpu.dcache.tags.total_refs            40415233                       # Total number of references to valid blocks.
system.cpu.dcache.tags.sampled_refs          12963222                       # Sample count of references to valid blocks.
system.cpu.dcache.tags.avg_refs              3.117684                       # Average number of references to valid blocks.
system.cpu.dcache.tags.warmup_cycle        4192157500                       # Cycle when the warmup percentage was hit.
system.cpu.dcache.tags.occ_blocks::cpu.data  2047.156115                       # Average occupied blocks per requestor
system.cpu.dcache.tags.occ_percent::cpu.data     0.999588                       # Average percentage of cache occupancy
system.cpu.dcache.tags.occ_percent::total     0.999588                       # Average percentage of cache occupancy
system.cpu.dcache.tags.occ_task_id_blocks::1024         2048                       # Occupied blocks per task id
system.cpu.dcache.tags.age_task_id_blocks_1024::0          119                       # Occupied blocks per task id
system.cpu.dcache.tags.age_task_id_blocks_1024::1         1041                       # Occupied blocks per task id
system.cpu.dcache.tags.age_task_id_blocks_1024::2          888                       # Occupied blocks per task id
system.cpu.dcache.tags.occ_task_id_percent::1024            1                       # Percentage of cache occupancy per task id
system.cpu.dcache.tags.tag_accesses         226477042                       # Number of tag accesses
system.cpu.dcache.tags.data_accesses        226477042                       # Number of data accesses
system.cpu.dcache.ReadReq_hits::cpu.data      1349642                       # number of ReadReq hits
system.cpu.dcache.ReadReq_hits::total         1349642                       # number of ReadReq hits
system.cpu.dcache.WriteReq_hits::cpu.data     39065591                       # number of WriteReq hits
system.cpu.dcache.WriteReq_hits::total       39065591                       # number of WriteReq hits
system.cpu.dcache.demand_hits::cpu.data      40415233                       # number of demand (read+write) hits
system.cpu.dcache.demand_hits::total         40415233                       # number of demand (read+write) hits
system.cpu.dcache.overall_hits::cpu.data     40415233                       # number of overall hits
system.cpu.dcache.overall_hits::total        40415233                       # number of overall hits
system.cpu.dcache.ReadReq_misses::cpu.data          500                       # number of ReadReq misses
system.cpu.dcache.ReadReq_misses::total           500                       # number of ReadReq misses
system.cpu.dcache.WriteReq_misses::cpu.data     12962722                       # number of WriteReq misses
system.cpu.dcache.WriteReq_misses::total     12962722                       # number of WriteReq misses
system.cpu.dcache.demand_misses::cpu.data     12963222                       # number of demand (read+write) misses
system.cpu.dcache.demand_misses::total       12963222                       # number of demand (read+write) misses
system.cpu.dcache.overall_misses::cpu.data     12963222                       # number of overall misses
system.cpu.dcache.overall_misses::total      12963222                       # number of overall misses
system.cpu.dcache.ReadReq_miss_latency::cpu.data     40666500                       # number of ReadReq miss cycles
system.cpu.dcache.ReadReq_miss_latency::total     40666500                       # number of ReadReq miss cycles
system.cpu.dcache.WriteReq_miss_latency::cpu.data 1014376838000                       # number of WriteReq miss cycles
system.cpu.dcache.WriteReq_miss_latency::total 1014376838000                       # number of WriteReq miss cycles
system.cpu.dcache.demand_miss_latency::cpu.data 1014417504500                       # number of demand (read+write) miss cycles
system.cpu.dcache.demand_miss_latency::total 1014417504500                       # number of demand (read+write) miss cycles
system.cpu.dcache.overall_miss_latency::cpu.data 1014417504500                       # number of overall miss cycles
system.cpu.dcache.overall_miss_latency::total 1014417504500                       # number of overall miss cycles
system.cpu.dcache.ReadReq_accesses::cpu.data      1350142                       # number of ReadReq accesses(hits+misses)
system.cpu.dcache.ReadReq_accesses::total      1350142                       # number of ReadReq accesses(hits+misses)
system.cpu.dcache.WriteReq_accesses::cpu.data     52028313                       # number of WriteReq accesses(hits+misses)
system.cpu.dcache.WriteReq_accesses::total     52028313                       # number of WriteReq accesses(hits+misses)
system.cpu.dcache.demand_accesses::cpu.data     53378455                       # number of demand (read+write) accesses
system.cpu.dcache.demand_accesses::total     53378455                       # number of demand (read+write) accesses
system.cpu.dcache.overall_accesses::cpu.data     53378455                       # number of overall (read+write) accesses
system.cpu.dcache.overall_accesses::total     53378455                       # number of overall (read+write) accesses
system.cpu.dcache.ReadReq_miss_rate::cpu.data     0.000370                       # miss rate for ReadReq accesses
system.cpu.dcache.ReadReq_miss_rate::total     0.000370                       # miss rate for ReadReq accesses
system.cpu.dcache.WriteReq_miss_rate::cpu.data     0.249147                       # miss rate for WriteReq accesses
system.cpu.dcache.WriteReq_miss_rate::total     0.249147                       # miss rate for WriteReq accesses
system.cpu.dcache.demand_miss_rate::cpu.data     0.242855                       # miss rate for demand accesses
system.cpu.dcache.demand_miss_rate::total     0.242855                       # miss rate for demand accesses
system.cpu.dcache.overall_miss_rate::cpu.data     0.242855                       # miss rate for overall accesses
system.cpu.dcache.overall_miss_rate::total     0.242855                       # miss rate for overall accesses
system.cpu.dcache.ReadReq_avg_miss_latency::cpu.data        81333                       # average ReadReq miss latency
system.cpu.dcache.ReadReq_avg_miss_latency::total        81333                       # average ReadReq miss latency
system.cpu.dcache.WriteReq_avg_miss_latency::cpu.data 78253.382121                       # average WriteReq miss latency
system.cpu.dcache.WriteReq_avg_miss_latency::total 78253.382121                       # average WriteReq miss latency
system.cpu.dcache.demand_avg_miss_latency::cpu.data 78253.500904                       # average overall miss latency
system.cpu.dcache.demand_avg_miss_latency::total 78253.500904                       # average overall miss latency
system.cpu.dcache.overall_avg_miss_latency::cpu.data 78253.500904                       # average overall miss latency
system.cpu.dcache.overall_avg_miss_latency::total 78253.500904                       # average overall miss latency
system.cpu.dcache.blocked_cycles::no_mshrs            0                       # number of cycles access was blocked
system.cpu.dcache.blocked_cycles::no_targets            0                       # number of cycles access was blocked
system.cpu.dcache.blocked::no_mshrs                 0                       # number of cycles access was blocked
system.cpu.dcache.blocked::no_targets               0                       # number of cycles access was blocked
system.cpu.dcache.avg_blocked_cycles::no_mshrs          nan                       # average number of cycles each access was blocked
system.cpu.dcache.avg_blocked_cycles::no_targets          nan                       # average number of cycles each access was blocked
system.cpu.dcache.fast_writes                       0                       # number of fast writes performed
system.cpu.dcache.cache_copies                      0                       # number of cache copies performed
system.cpu.dcache.writebacks::writebacks     12960790                       # number of writebacks
system.cpu.dcache.writebacks::total          12960790                       # number of writebacks
system.cpu.dcache.ReadReq_mshr_misses::cpu.data          500                       # number of ReadReq MSHR misses
system.cpu.dcache.ReadReq_mshr_misses::total          500                       # number of ReadReq MSHR misses
system.cpu.dcache.WriteReq_mshr_misses::cpu.data     12962722                       # number of WriteReq MSHR misses
system.cpu.dcache.WriteReq_mshr_misses::total     12962722                       # number of WriteReq MSHR misses
system.cpu.dcache.demand_mshr_misses::cpu.data     12963222                       # number of demand (read+write) MSHR misses
system.cpu.dcache.demand_mshr_misses::total     12963222                       # number of demand (read+write) MSHR misses
system.cpu.dcache.overall_mshr_misses::cpu.data     12963222                       # number of overall MSHR misses
system.cpu.dcache.overall_mshr_misses::total     12963222                       # number of overall MSHR misses
system.cpu.dcache.ReadReq_mshr_miss_latency::cpu.data     40166500                       # number of ReadReq MSHR miss cycles
system.cpu.dcache.ReadReq_mshr_miss_latency::total     40166500                       # number of ReadReq MSHR miss cycles
system.cpu.dcache.WriteReq_mshr_miss_latency::cpu.data 1001414116000                       # number of WriteReq MSHR miss cycles
system.cpu.dcache.WriteReq_mshr_miss_latency::total 1001414116000                       # number of WriteReq MSHR miss cycles
system.cpu.dcache.demand_mshr_miss_latency::cpu.data 1001454282500                       # number of demand (read+write) MSHR miss cycles
system.cpu.dcache.demand_mshr_miss_latency::total 1001454282500                       # number of demand (read+write) MSHR miss cycles
system.cpu.dcache.overall_mshr_miss_latency::cpu.data 1001454282500                       # number of overall MSHR miss cycles
system.cpu.dcache.overall_mshr_miss_latency::total 1001454282500                       # number of overall MSHR miss cycles
system.cpu.dcache.ReadReq_mshr_miss_rate::cpu.data     0.000370                       # mshr miss rate for ReadReq accesses
system.cpu.dcache.ReadReq_mshr_miss_rate::total     0.000370                       # mshr miss rate for ReadReq accesses
system.cpu.dcache.WriteReq_mshr_miss_rate::cpu.data     0.249147                       # mshr miss rate for WriteReq accesses
system.cpu.dcache.WriteReq_mshr_miss_rate::total     0.249147                       # mshr miss rate for WriteReq accesses
system.cpu.dcache.demand_mshr_miss_rate::cpu.data     0.242855                       # mshr miss rate for demand accesses
system.cpu.dcache.demand_mshr_miss_rate::total     0.242855                       # mshr miss rate for demand accesses
system.cpu.dcache.overall_mshr_miss_rate::cpu.data     0.242855                       # mshr miss rate for overall accesses
system.cpu.dcache.overall_mshr_miss_rate::total     0.242855                       # mshr miss rate for overall accesses
system.cpu.dcache.ReadReq_avg_mshr_miss_latency::cpu.data        80333                       # average ReadReq mshr miss latency
system.cpu.dcache.ReadReq_avg_mshr_miss_latency::total        80333                       # average ReadReq mshr miss latency
system.cpu.dcache.WriteReq_avg_mshr_miss_latency::cpu.data 77253.382121                       # average WriteReq mshr miss latency
system.cpu.dcache.WriteReq_avg_mshr_miss_latency::total 77253.382121                       # average WriteReq mshr miss latency
system.cpu.dcache.demand_avg_mshr_miss_latency::cpu.data 77253.500904                       # average overall mshr miss latency
system.cpu.dcache.demand_avg_mshr_miss_latency::total 77253.500904                       # average overall mshr miss latency
system.cpu.dcache.overall_avg_mshr_miss_latency::cpu.data 77253.500904                       # average overall mshr miss latency
system.cpu.dcache.overall_avg_mshr_miss_latency::total 77253.500904                       # average overall mshr miss latency
system.cpu.dcache.no_allocate_misses                0                       # Number of misses that were no-allocate
system.cpu.dtb_walker_cache.tags.replacements            0                       # number of replacements
system.cpu.dtb_walker_cache.tags.tagsinuse            0                       # Cycle average of tags in use
system.cpu.dtb_walker_cache.tags.total_refs            0                       # Total number of references to valid blocks.
system.cpu.dtb_walker_cache.tags.sampled_refs            0                       # Sample count of references to valid blocks.
system.cpu.dtb_walker_cache.tags.avg_refs          nan                       # Average number of references to valid blocks.
system.cpu.dtb_walker_cache.tags.warmup_cycle            0                       # Cycle when the warmup percentage was hit.
system.cpu.dtb_walker_cache.tags.tag_accesses            0                       # Number of tag accesses
system.cpu.dtb_walker_cache.tags.data_accesses            0                       # Number of data accesses
system.cpu.dtb_walker_cache.blocked_cycles::no_mshrs            0                       # number of cycles access was blocked
system.cpu.dtb_walker_cache.blocked_cycles::no_targets            0                       # number of cycles access was blocked
system.cpu.dtb_walker_cache.blocked::no_mshrs            0                       # number of cycles access was blocked
system.cpu.dtb_walker_cache.blocked::no_targets            0                       # number of cycles access was blocked
system.cpu.dtb_walker_cache.avg_blocked_cycles::no_mshrs          nan                       # average number of cycles each access was blocked
system.cpu.dtb_walker_cache.avg_blocked_cycles::no_targets          nan                       # average number of cycles each access was blocked
system.cpu.dtb_walker_cache.fast_writes             0                       # number of fast writes performed
system.cpu.dtb_walker_cache.cache_copies            0                       # number of cache copies performed
system.cpu.dtb_walker_cache.no_allocate_misses            0                       # Number of misses that were no-allocate
system.cpu.icache.tags.replacements                91                       # number of replacements
system.cpu.icache.tags.tagsinuse           852.454835                       # Cycle average of tags in use
system.cpu.icache.tags.total_refs            70767153                       # Total number of references to valid blocks.
system.cpu.icache.tags.sampled_refs              1382                       # Sample count of references to valid blocks.
system.cpu.icache.tags.avg_refs          51206.333575                       # Average number of references to valid blocks.
system.cpu.icache.tags.warmup_cycle                 0                       # Cycle when the warmup percentage was hit.
system.cpu.icache.tags.occ_blocks::cpu.inst   852.454835                       # Average occupied blocks per requestor
system.cpu.icache.tags.occ_percent::cpu.inst     0.416238                       # Average percentage of cache occupancy
system.cpu.icache.tags.occ_percent::total     0.416238                       # Average percentage of cache occupancy
system.cpu.icache.tags.occ_task_id_blocks::1024         1291                       # Occupied blocks per task id
system.cpu.icache.tags.age_task_id_blocks_1024::4         1291                       # Occupied blocks per task id
system.cpu.icache.tags.occ_task_id_percent::1024     0.630371                       # Percentage of cache occupancy per task id
system.cpu.icache.tags.tag_accesses         283075522                       # Number of tag accesses
system.cpu.icache.tags.data_accesses        283075522                       # Number of data accesses
system.cpu.icache.ReadReq_hits::cpu.inst     70767153                       # number of ReadReq hits
system.cpu.icache.ReadReq_hits::total        70767153                       # number of ReadReq hits
system.cpu.icache.demand_hits::cpu.inst      70767153                       # number of demand (read+write) hits
system.cpu.icache.demand_hits::total         70767153                       # number of demand (read+write) hits
system.cpu.icache.overall_hits::cpu.inst     70767153                       # number of overall hits
system.cpu.icache.overall_hits::total        70767153                       # number of overall hits
system.cpu.icache.ReadReq_misses::cpu.inst         1382                       # number of ReadReq misses
system.cpu.icache.ReadReq_misses::total          1382                       # number of ReadReq misses
system.cpu.icache.demand_misses::cpu.inst         1382                       # number of demand (read+write) misses
system.cpu.icache.demand_misses::total           1382                       # number of demand (read+write) misses
system.cpu.icache.overall_misses::cpu.inst         1382                       # number of overall misses
system.cpu.icache.overall_misses::total          1382                       # number of overall misses
system.cpu.icache.ReadReq_miss_latency::cpu.inst    109463000                       # number of ReadReq miss cycles
system.cpu.icache.ReadReq_miss_latency::total    109463000                       # number of ReadReq miss cycles
system.cpu.icache.demand_miss_latency::cpu.inst    109463000                       # number of demand (read+write) miss cycles
system.cpu.icache.demand_miss_latency::total    109463000                       # number of demand (read+write) miss cycles
system.cpu.icache.overall_miss_latency::cpu.inst    109463000                       # number of overall miss cycles
system.cpu.icache.overall_miss_latency::total    109463000                       # number of overall miss cycles
system.cpu.icache.ReadReq_accesses::cpu.inst     70768535                       # number of ReadReq accesses(hits+misses)
system.cpu.icache.ReadReq_accesses::total     70768535                       # number of ReadReq accesses(hits+misses)
system.cpu.icache.demand_accesses::cpu.inst     70768535                       # number of demand (read+write) accesses
system.cpu.icache.demand_accesses::total     70768535                       # number of demand (read+write) accesses
system.cpu.icache.overall_accesses::cpu.inst     70768535                       # number of overall (read+write) accesses
system.cpu.icache.overall_accesses::total     70768535                       # number of overall (read+write) accesses
system.cpu.icache.ReadReq_miss_rate::cpu.inst     0.000020                       # miss rate for ReadReq accesses
system.cpu.icache.ReadReq_miss_rate::total     0.000020                       # miss rate for ReadReq accesses
system.cpu.icache.demand_miss_rate::cpu.inst     0.000020                       # miss rate for demand accesses
system.cpu.icache.demand_miss_rate::total     0.000020                       # miss rate for demand accesses
system.cpu.icache.overall_miss_rate::cpu.inst     0.000020                       # miss rate for overall accesses
system.cpu.icache.overall_miss_rate::total     0.000020                       # miss rate for overall accesses
system.cpu.icache.ReadReq_avg_miss_latency::cpu.inst 79206.222865                       # average ReadReq miss latency
system.cpu.icache.ReadReq_avg_miss_latency::total 79206.222865                       # average ReadReq miss latency
system.cpu.icache.demand_avg_miss_latency::cpu.inst 79206.222865                       # average overall miss latency
system.cpu.icache.demand_avg_miss_latency::total 79206.222865                       # average overall miss latency
system.cpu.icache.overall_avg_miss_latency::cpu.inst 79206.222865                       # average overall miss latency
system.cpu.icache.overall_avg_miss_latency::total 79206.222865                       # average overall miss latency
system.cpu.icache.blocked_cycles::no_mshrs            0                       # number of cycles access was blocked
system.cpu.icache.blocked_cycles::no_targets            0                       # number of cycles access was blocked
system.cpu.icache.blocked::no_mshrs                 0                       # number of cycles access was blocked
system.cpu.icache.blocked::no_targets               0                       # number of cycles access was blocked
system.cpu.icache.avg_blocked_cycles::no_mshrs          nan                       # average number of cycles each access was blocked
system.cpu.icache.avg_blocked_cycles::no_targets          nan                       # average number of cycles each access was blocked
system.cpu.icache.fast_writes                       0                       # number of fast writes performed
system.cpu.icache.cache_copies                      0                       # number of cache copies performed
system.cpu.icache.writebacks::writebacks           91                       # number of writebacks
system.cpu.icache.writebacks::total                91                       # number of writebacks
system.cpu.icache.ReadReq_mshr_misses::cpu.inst         1382                       # number of ReadReq MSHR misses
system.cpu.icache.ReadReq_mshr_misses::total         1382                       # number of ReadReq MSHR misses
system.cpu.icache.demand_mshr_misses::cpu.inst         1382                       # number of demand (read+write) MSHR misses
system.cpu.icache.demand_mshr_misses::total         1382                       # number of demand (read+write) MSHR misses
system.cpu.icache.overall_mshr_misses::cpu.inst         1382                       # number of overall MSHR misses
system.cpu.icache.overall_mshr_misses::total         1382                       # number of overall MSHR misses
system.cpu.icache.ReadReq_mshr_miss_latency::cpu.inst    108081000                       # number of ReadReq MSHR miss cycles
system.cpu.icache.ReadReq_mshr_miss_latency::total    108081000                       # number of ReadReq MSHR miss cycles
system.cpu.icache.demand_mshr_miss_latency::cpu.inst    108081000                       # number of demand (read+write) MSHR miss cycles
system.cpu.icache.demand_mshr_miss_latency::total    108081000                       # number of demand (read+write) MSHR miss cycles
system.cpu.icache.overall_mshr_miss_latency::cpu.inst    108081000                       # number of overall MSHR miss cycles
system.cpu.icache.overall_mshr_miss_latency::total    108081000                       # number of overall MSHR miss cycles
system.cpu.icache.ReadReq_mshr_miss_rate::cpu.inst     0.000020                       # mshr miss rate for ReadReq accesses
system.cpu.icache.ReadReq_mshr_miss_rate::total     0.000020                       # mshr miss rate for ReadReq accesses
system.cpu.icache.demand_mshr_miss_rate::cpu.inst     0.000020                       # mshr miss rate for demand accesses
system.cpu.icache.demand_mshr_miss_rate::total     0.000020                       # mshr miss rate for demand accesses
system.cpu.icache.overall_mshr_miss_rate::cpu.inst     0.000020                       # mshr miss rate for overall accesses
system.cpu.icache.overall_mshr_miss_rate::total     0.000020                       # mshr miss rate for overall accesses
system.cpu.icache.ReadReq_avg_mshr_miss_latency::cpu.inst 78206.222865                       # average ReadReq mshr miss latency
system.cpu.icache.ReadReq_avg_mshr_miss_latency::total 78206.222865                       # average ReadReq mshr miss latency
system.cpu.icache.demand_avg_mshr_miss_latency::cpu.inst 78206.222865                       # average overall mshr miss latency
system.cpu.icache.demand_avg_mshr_miss_latency::total 78206.222865                       # average overall mshr miss latency
system.cpu.icache.overall_avg_mshr_miss_latency::cpu.inst 78206.222865                       # average overall mshr miss latency
system.cpu.icache.overall_avg_mshr_miss_latency::total 78206.222865                       # average overall mshr miss latency
system.cpu.icache.no_allocate_misses                0                       # Number of misses that were no-allocate
system.cpu.itb_walker_cache.tags.replacements            0                       # number of replacements
system.cpu.itb_walker_cache.tags.tagsinuse            0                       # Cycle average of tags in use
system.cpu.itb_walker_cache.tags.total_refs            0                       # Total number of references to valid blocks.
system.cpu.itb_walker_cache.tags.sampled_refs            0                       # Sample count of references to valid blocks.
system.cpu.itb_walker_cache.tags.avg_refs          nan                       # Average number of references to valid blocks.
system.cpu.itb_walker_cache.tags.warmup_cycle            0                       # Cycle when the warmup percentage was hit.
system.cpu.itb_walker_cache.tags.tag_accesses            0                       # Number of tag accesses
system.cpu.itb_walker_cache.tags.data_accesses            0                       # Number of data accesses
system.cpu.itb_walker_cache.blocked_cycles::no_mshrs            0                       # number of cycles access was blocked
system.cpu.itb_walker_cache.blocked_cycles::no_targets            0                       # number of cycles access was blocked
system.cpu.itb_walker_cache.blocked::no_mshrs            0                       # number of cycles access was blocked
system.cpu.itb_walker_cache.blocked::no_targets            0                       # number of cycles access was blocked
system.cpu.itb_walker_cache.avg_blocked_cycles::no_mshrs          nan                       # average number of cycles each access was blocked
system.cpu.itb_walker_cache.avg_blocked_cycles::no_targets          nan                       # average number of cycles each access was blocked
system.cpu.itb_walker_cache.fast_writes             0                       # number of fast writes performed
system.cpu.itb_walker_cache.cache_copies            0                       # number of cache copies performed
system.cpu.itb_walker_cache.no_allocate_misses            0                       # Number of misses that were no-allocate
system.l2.tags.replacements                  12833577                       # number of replacements
system.l2.tags.tagsinuse                 127521.867738                       # Cycle average of tags in use
system.l2.tags.total_refs                         541                       # Total number of references to valid blocks.
system.l2.tags.sampled_refs                  12962601                       # Sample count of references to valid blocks.
system.l2.tags.avg_refs                      0.000042                       # Average number of references to valid blocks.
system.l2.tags.warmup_cycle                         0                       # Cycle when the warmup percentage was hit.
system.l2.tags.occ_blocks::writebacks    127502.533817                       # Average occupied blocks per requestor
system.l2.tags.occ_blocks::cpu.inst         15.386651                       # Average occupied blocks per requestor
system.l2.tags.occ_blocks::cpu.data          3.947273                       # Average occupied blocks per requestor
system.l2.tags.occ_percent::writebacks       0.972767                       # Average percentage of cache occupancy
system.l2.tags.occ_percent::cpu.inst         0.000117                       # Average percentage of cache occupancy
system.l2.tags.occ_percent::cpu.data         0.000030                       # Average percentage of cache occupancy
system.l2.tags.occ_percent::total            0.972915                       # Average percentage of cache occupancy
system.l2.tags.occ_task_id_blocks::1024        129024                       # Occupied blocks per task id
system.l2.tags.age_task_id_blocks_1024::0          119                       # Occupied blocks per task id
system.l2.tags.age_task_id_blocks_1024::1         1041                       # Occupied blocks per task id
system.l2.tags.age_task_id_blocks_1024::2        10427                       # Occupied blocks per task id
system.l2.tags.age_task_id_blocks_1024::3       104282                       # Occupied blocks per task id
system.l2.tags.age_task_id_blocks_1024::4        13155                       # Occupied blocks per task id
system.l2.tags.occ_task_id_percent::1024     0.984375                       # Percentage of cache occupancy per task id
system.l2.tags.tag_accesses                  51851192                       # Number of tag accesses
system.l2.tags.data_accesses                 51851192                       # Number of data accesses
system.l2.WritebackDirty_hits::writebacks     12960790                       # number of WritebackDirty hits
system.l2.WritebackDirty_hits::total         12960790                       # number of WritebackDirty hits
system.l2.WritebackClean_hits::writebacks           91                       # number of WritebackClean hits
system.l2.WritebackClean_hits::total               91                       # number of WritebackClean hits
system.l2.ReadExReq_hits::cpu.data                 14                       # number of ReadExReq hits
system.l2.ReadExReq_hits::total                    14                       # number of ReadExReq hits
system.l2.ReadCleanReq_hits::cpu.inst               7                       # number of ReadCleanReq hits
system.l2.ReadCleanReq_hits::total                  7                       # number of ReadCleanReq hits
system.l2.ReadSharedReq_hits::cpu.data             17                       # number of ReadSharedReq hits
system.l2.ReadSharedReq_hits::total                17                       # number of ReadSharedReq hits
system.l2.demand_hits::cpu.inst                     7                       # number of demand (read+write) hits
system.l2.demand_hits::cpu.data                    31                       # number of demand (read+write) hits
system.l2.demand_hits::total                       38                       # number of demand (read+write) hits
system.l2.overall_hits::cpu.inst                    7                       # number of overall hits
system.l2.overall_hits::cpu.data                   31                       # number of overall hits
system.l2.overall_hits::total                      38                       # number of overall hits
system.l2.ReadExReq_misses::cpu.data         12962708                       # number of ReadExReq misses
system.l2.ReadExReq_misses::total            12962708                       # number of ReadExReq misses
system.l2.ReadCleanReq_misses::cpu.inst          1375                       # number of ReadCleanReq misses
system.l2.ReadCleanReq_misses::total             1375                       # number of ReadCleanReq misses
system.l2.ReadSharedReq_misses::cpu.data          483                       # number of ReadSharedReq misses
system.l2.ReadSharedReq_misses::total             483                       # number of ReadSharedReq misses
system.l2.demand_misses::cpu.inst                1375                       # number of demand (read+write) misses
system.l2.demand_misses::cpu.data            12963191                       # number of demand (read+write) misses
system.l2.demand_misses::total               12964566                       # number of demand (read+write) misses
system.l2.overall_misses::cpu.inst               1375                       # number of overall misses
system.l2.overall_misses::cpu.data           12963191                       # number of overall misses
system.l2.overall_misses::total              12964566                       # number of overall misses
system.l2.ReadExReq_miss_latency::cpu.data 981969886000                       # number of ReadExReq miss cycles
system.l2.ReadExReq_miss_latency::total  981969886000                       # number of ReadExReq miss cycles
system.l2.ReadCleanReq_miss_latency::cpu.inst    105934500                       # number of ReadCleanReq miss cycles
system.l2.ReadCleanReq_miss_latency::total    105934500                       # number of ReadCleanReq miss cycles
system.l2.ReadSharedReq_miss_latency::cpu.data     39237500                       # number of ReadSharedReq miss cycles
system.l2.ReadSharedReq_miss_latency::total     39237500                       # number of ReadSharedReq miss cycles
system.l2.demand_miss_latency::cpu.inst     105934500                       # number of demand (read+write) miss cycles
system.l2.demand_miss_latency::cpu.data  982009123500                       # number of demand (read+write) miss cycles
system.l2.demand_miss_latency::total     982115058000                       # number of demand (read+write) miss cycles
system.l2.overall_miss_latency::cpu.inst    105934500                       # number of overall miss cycles
system.l2.overall_miss_latency::cpu.data 982009123500                       # number of overall miss cycles
system.l2.overall_miss_latency::total    982115058000                       # number of overall miss cycles
system.l2.WritebackDirty_accesses::writebacks     12960790                       # number of WritebackDirty accesses(hits+misses)
system.l2.WritebackDirty_accesses::total     12960790                       # number of WritebackDirty accesses(hits+misses)
system.l2.WritebackClean_accesses::writebacks           91                       # number of WritebackClean accesses(hits+misses)
system.l2.WritebackClean_accesses::total           91                       # number of WritebackClean accesses(hits+misses)
system.l2.ReadExReq_accesses::cpu.data       12962722                       # number of ReadExReq accesses(hits+misses)
system.l2.ReadExReq_accesses::total          12962722                       # number of ReadExReq accesses(hits+misses)
system.l2.ReadCleanReq_accesses::cpu.inst         1382                       # number of ReadCleanReq accesses(hits+misses)
system.l2.ReadCleanReq_accesses::total           1382                       # number of ReadCleanReq accesses(hits+misses)
system.l2.ReadSharedReq_accesses::cpu.data          500                       # number of ReadSharedReq accesses(hits+misses)
system.l2.ReadSharedReq_accesses::total           500                       # number of ReadSharedReq accesses(hits+misses)
system.l2.demand_accesses::cpu.inst              1382                       # number of demand (read+write) accesses
system.l2.demand_accesses::cpu.data          12963222                       # number of demand (read+write) accesses
system.l2.demand_accesses::total             12964604                       # number of demand (read+write) accesses
system.l2.overall_accesses::cpu.inst             1382                       # number of overall (read+write) accesses
system.l2.overall_accesses::cpu.data         12963222                       # number of overall (read+write) accesses
system.l2.overall_accesses::total            12964604                       # number of overall (read+write) accesses
system.l2.ReadExReq_miss_rate::cpu.data      0.999999                       # miss rate for ReadExReq accesses
system.l2.ReadExReq_miss_rate::total         0.999999                       # miss rate for ReadExReq accesses
system.l2.ReadCleanReq_miss_rate::cpu.inst     0.994935                       # miss rate for ReadCleanReq accesses
system.l2.ReadCleanReq_miss_rate::total      0.994935                       # miss rate for ReadCleanReq accesses
system.l2.ReadSharedReq_miss_rate::cpu.data     0.966000                       # miss rate for ReadSharedReq accesses
system.l2.ReadSharedReq_miss_rate::total     0.966000                       # miss rate for ReadSharedReq accesses
system.l2.demand_miss_rate::cpu.inst         0.994935                       # miss rate for demand accesses
system.l2.demand_miss_rate::cpu.data         0.999998                       # miss rate for demand accesses
system.l2.demand_miss_rate::total            0.999997                       # miss rate for demand accesses
system.l2.overall_miss_rate::cpu.inst        0.994935                       # miss rate for overall accesses
system.l2.overall_miss_rate::cpu.data        0.999998                       # miss rate for overall accesses
system.l2.overall_miss_rate::total           0.999997                       # miss rate for overall accesses
system.l2.ReadExReq_avg_miss_latency::cpu.data 75753.452596                       # average ReadExReq miss latency
system.l2.ReadExReq_avg_miss_latency::total 75753.452596                       # average ReadExReq miss latency
system.l2.ReadCleanReq_avg_miss_latency::cpu.inst 77043.272727                       # average ReadCleanReq miss latency
system.l2.ReadCleanReq_avg_miss_latency::total 77043.272727                       # average ReadCleanReq miss latency
system.l2.ReadSharedReq_avg_miss_latency::cpu.data 81237.060041                       # average ReadSharedReq miss latency
system.l2.ReadSharedReq_avg_miss_latency::total 81237.060041                       # average ReadSharedReq miss latency
system.l2.demand_avg_miss_latency::cpu.inst 77043.272727                       # average overall miss latency
system.l2.demand_avg_miss_latency::cpu.data 75753.656912                       # average overall miss latency
system.l2.demand_avg_miss_latency::total 75753.793687                       # average overall miss latency
system.l2.overall_avg_miss_latency::cpu.inst 77043.272727                       # average overall miss latency
system.l2.overall_avg_miss_latency::cpu.data 75753.656912                       # average overall miss latency
system.l2.overall_avg_miss_latency::total 75753.793687                       # average overall miss latency
system.l2.blocked_cycles::no_mshrs                  0                       # number of cycles access was blocked
system.l2.blocked_cycles::no_targets                0                       # number of cycles access was blocked
system.l2.blocked::no_mshrs                         0                       # number of cycles access was blocked
system.l2.blocked::no_targets                       0                       # number of cycles access was blocked
system.l2.avg_blocked_cycles::no_mshrs            nan                       # average number of cycles each access was blocked
system.l2.avg_blocked_cycles::no_targets          nan                       # average number of cycles each access was blocked
system.l2.fast_writes                               0                       # number of fast writes performed
system.l2.cache_copies                              0                       # number of cache copies performed
system.l2.writebacks::writebacks             12831737                       # number of writebacks
system.l2.writebacks::total                  12831737                       # number of writebacks
system.l2.CleanEvict_mshr_misses::writebacks            5                       # number of CleanEvict MSHR misses
system.l2.CleanEvict_mshr_misses::total             5                       # number of CleanEvict MSHR misses
system.l2.ReadExReq_mshr_misses::cpu.data     12962708                       # number of ReadExReq MSHR misses
system.l2.ReadExReq_mshr_misses::total       12962708                       # number of ReadExReq MSHR misses
system.l2.ReadCleanReq_mshr_misses::cpu.inst         1375                       # number of ReadCleanReq MSHR misses
system.l2.ReadCleanReq_mshr_misses::total         1375                       # number of ReadCleanReq MSHR misses
system.l2.ReadSharedReq_mshr_misses::cpu.data          483                       # number of ReadSharedReq MSHR misses
system.l2.ReadSharedReq_mshr_misses::total          483                       # number of ReadSharedReq MSHR misses
system.l2.demand_mshr_misses::cpu.inst           1375                       # number of demand (read+write) MSHR misses
system.l2.demand_mshr_misses::cpu.data       12963191                       # number of demand (read+write) MSHR misses
system.l2.demand_mshr_misses::total          12964566                       # number of demand (read+write) MSHR misses
system.l2.overall_mshr_misses::cpu.inst          1375                       # number of overall MSHR misses
system.l2.overall_mshr_misses::cpu.data      12963191                       # number of overall MSHR misses
system.l2.overall_mshr_misses::total         12964566                       # number of overall MSHR misses
system.l2.ReadExReq_mshr_miss_latency::cpu.data 852342806000                       # number of ReadExReq MSHR miss cycles
system.l2.ReadExReq_mshr_miss_latency::total 852342806000                       # number of ReadExReq MSHR miss cycles
system.l2.ReadCleanReq_mshr_miss_latency::cpu.inst     92184500                       # number of ReadCleanReq MSHR miss cycles
system.l2.ReadCleanReq_mshr_miss_latency::total     92184500                       # number of ReadCleanReq MSHR miss cycles
system.l2.ReadSharedReq_mshr_miss_latency::cpu.data     34407500                       # number of ReadSharedReq MSHR miss cycles
system.l2.ReadSharedReq_mshr_miss_latency::total     34407500                       # number of ReadSharedReq MSHR miss cycles
system.l2.demand_mshr_miss_latency::cpu.inst     92184500                       # number of demand (read+write) MSHR miss cycles
system.l2.demand_mshr_miss_latency::cpu.data 852377213500                       # number of demand (read+write) MSHR miss cycles
system.l2.demand_mshr_miss_latency::total 852469398000                       # number of demand (read+write) MSHR miss cycles
system.l2.overall_mshr_miss_latency::cpu.inst     92184500                       # number of overall MSHR miss cycles
system.l2.overall_mshr_miss_latency::cpu.data 852377213500                       # number of overall MSHR miss cycles
system.l2.overall_mshr_miss_latency::total 852469398000                       # number of overall MSHR miss cycles
system.l2.CleanEvict_mshr_miss_rate::writebacks          inf                       # mshr miss rate for CleanEvict accesses
system.l2.CleanEvict_mshr_miss_rate::total          inf                       # mshr miss rate for CleanEvict accesses
system.l2.ReadExReq_mshr_miss_rate::cpu.data     0.999999                       # mshr miss rate for ReadExReq accesses
system.l2.ReadExReq_mshr_miss_rate::total     0.999999                       # mshr miss rate for ReadExReq accesses
system.l2.ReadCleanReq_mshr_miss_rate::cpu.inst     0.994935                       # mshr miss rate for ReadCleanReq accesses
system.l2.ReadCleanReq_mshr_miss_rate::total     0.994935                       # mshr miss rate for ReadCleanReq accesses
system.l2.ReadSharedReq_mshr_miss_rate::cpu.data     0.966000                       # mshr miss rate for ReadSharedReq accesses
system.l2.ReadSharedReq_mshr_miss_rate::total     0.966000                       # mshr miss rate for ReadSharedReq accesses
system.l2.demand_mshr_miss_rate::cpu.inst     0.994935                       # mshr miss rate for demand accesses
system.l2.demand_mshr_miss_rate::cpu.data     0.999998                       # mshr miss rate for demand accesses
system.l2.demand_mshr_miss_rate::total       0.999997                       # mshr miss rate for demand accesses
system.l2.overall_mshr_miss_rate::cpu.inst     0.994935                       # mshr miss rate for overall accesses
system.l2.overall_mshr_miss_rate::cpu.data     0.999998                       # mshr miss rate for overall accesses
system.l2.overall_mshr_miss_rate::total      0.999997                       # mshr miss rate for overall accesses
system.l2.ReadExReq_avg_mshr_miss_latency::cpu.data 65753.452596                       # average ReadExReq mshr miss latency
system.l2.ReadExReq_avg_mshr_miss_latency::total 65753.452596                       # average ReadExReq mshr miss latency
system.l2.ReadCleanReq_avg_mshr_miss_latency::cpu.inst 67043.272727                       # average ReadCleanReq mshr miss latency
system.l2.ReadCleanReq_avg_mshr_miss_latency::total 67043.272727                       # average ReadCleanReq mshr miss latency
system.l2.ReadSharedReq_avg_mshr_miss_latency::cpu.data 71237.060041                       # average ReadSharedReq mshr miss latency
system.l2.ReadSharedReq_avg_mshr_miss_latency::total 71237.060041                       # average ReadSharedReq mshr miss latency
system.l2.demand_avg_mshr_miss_latency::cpu.inst 67043.272727                       # average overall mshr miss latency
system.l2.demand_avg_mshr_miss_latency::cpu.data 65753.656912                       # average overall mshr miss latency
system.l2.demand_avg_mshr_miss_latency::total 65753.793687                       # average overall mshr miss latency
system.l2.overall_avg_mshr_miss_latency::cpu.inst 67043.272727                       # average overall mshr miss latency
system.l2.overall_avg_mshr_miss_latency::cpu.data 65753.656912                       # average overall mshr miss latency
system.l2.overall_avg_mshr_miss_latency::total 65753.793687                       # average overall mshr miss latency
system.l2.no_allocate_misses                        0                       # Number of misses that were no-allocate
system.membus.trans_dist::ReadResp               1858                       # Transaction distribution
system.membus.trans_dist::WritebackDirty     12831737                       # Transaction distribution
system.membus.trans_dist::CleanEvict              466                       # Transaction distribution
system.membus.trans_dist::ReadExReq          12962708                       # Transaction distribution
system.membus.trans_dist::ReadExResp         12962708                       # Transaction distribution
system.membus.trans_dist::ReadSharedReq          1858                       # Transaction distribution
system.membus.pkt_count_system.l2.mem_side::system.mem_ctrls.port     38761335                       # Packet count per connected master and slave (bytes)
system.membus.pkt_count_system.l2.mem_side::total     38761335                       # Packet count per connected master and slave (bytes)
system.membus.pkt_count::total               38761335                       # Packet count per connected master and slave (bytes)
system.membus.pkt_size_system.l2.mem_side::system.mem_ctrls.port    825481696                       # Cumulative packet size per connected master and slave (bytes)
system.membus.pkt_size_system.l2.mem_side::total    825481696                       # Cumulative packet size per connected master and slave (bytes)
system.membus.pkt_size::total               825481696                       # Cumulative packet size per connected master and slave (bytes)
system.membus.snoops                                0                       # Total snoops (count)
system.membus.snoop_fanout::samples          25796769                       # Request fanout histogram
system.membus.snoop_fanout::mean                    0                       # Request fanout histogram
system.membus.snoop_fanout::stdev                   0                       # Request fanout histogram
system.membus.snoop_fanout::underflows              0      0.00%      0.00% # Request fanout histogram
system.membus.snoop_fanout::0                25796769    100.00%    100.00% # Request fanout histogram
system.membus.snoop_fanout::1                       0      0.00%    100.00% # Request fanout histogram
system.membus.snoop_fanout::overflows               0      0.00%    100.00% # Request fanout histogram
system.membus.snoop_fanout::min_value               0                       # Request fanout histogram
system.membus.snoop_fanout::max_value               0                       # Request fanout histogram
system.membus.snoop_fanout::total            25796769                       # Request fanout histogram
system.membus.reqLayer2.occupancy         51460245500                       # Layer occupancy (ticks)
system.membus.reqLayer2.utilization               4.6                       # Layer utilization (%)
system.membus.respLayer1.occupancy        42313241750                       # Layer occupancy (ticks)
system.membus.respLayer1.utilization              3.8                       # Layer utilization (%)
system.tol2bus.snoop_filter.tot_requests     25925869                       # Total number of requests made to the snoop filter.
system.tol2bus.snoop_filter.hit_single_requests     12961265                       # Number of requests hitting in the snoop filter with a single holder of the requested data.
system.tol2bus.snoop_filter.hit_multi_requests            0                       # Number of requests hitting in the snoop filter with multiple (>1) holders of the requested data.
system.tol2bus.snoop_filter.tot_snoops           1379                       # Total number of snoops made to the snoop filter.
system.tol2bus.snoop_filter.hit_single_snoops         1379                       # Number of snoops hitting in the snoop filter with a single holder of the requested data.
system.tol2bus.snoop_filter.hit_multi_snoops            0                       # Number of snoops hitting in the snoop filter with multiple (>1) holders of the requested data.
system.tol2bus.trans_dist::ReadResp              1882                       # Transaction distribution
system.tol2bus.trans_dist::WritebackDirty     25792527                       # Transaction distribution
system.tol2bus.trans_dist::WritebackClean           91                       # Transaction distribution
system.tol2bus.trans_dist::CleanEvict            2224                       # Transaction distribution
system.tol2bus.trans_dist::ReadExReq         12962722                       # Transaction distribution
system.tol2bus.trans_dist::ReadExResp        12962722                       # Transaction distribution
system.tol2bus.trans_dist::ReadCleanReq          1382                       # Transaction distribution
system.tol2bus.trans_dist::ReadSharedReq          500                       # Transaction distribution
system.tol2bus.pkt_count_system.cpu.icache.mem_side::system.l2.cpu_side         2855                       # Packet count per connected master and slave (bytes)
system.tol2bus.pkt_count_system.cpu.dcache.mem_side::system.l2.cpu_side     38887618                       # Packet count per connected master and slave (bytes)
system.tol2bus.pkt_count::total              38890473                       # Packet count per connected master and slave (bytes)
system.tol2bus.pkt_size_system.cpu.icache.mem_side::system.l2.cpu_side        47136                       # Cumulative packet size per connected master and slave (bytes)
system.tol2bus.pkt_size_system.cpu.dcache.mem_side::system.l2.cpu_side    829568384                       # Cumulative packet size per connected master and slave (bytes)
system.tol2bus.pkt_size::total              829615520                       # Cumulative packet size per connected master and slave (bytes)
system.tol2bus.snoops                        12833577                       # Total snoops (count)
system.tol2bus.snoop_fanout::samples         25798181                       # Request fanout histogram
system.tol2bus.snoop_fanout::mean            0.000053                       # Request fanout histogram
system.tol2bus.snoop_fanout::stdev           0.007311                       # Request fanout histogram
system.tol2bus.snoop_fanout::underflows             0      0.00%      0.00% # Request fanout histogram
system.tol2bus.snoop_fanout::0               25796802     99.99%     99.99% # Request fanout histogram
system.tol2bus.snoop_fanout::1                   1379      0.01%    100.00% # Request fanout histogram
system.tol2bus.snoop_fanout::2                      0      0.00%    100.00% # Request fanout histogram
system.tol2bus.snoop_fanout::3                      0      0.00%    100.00% # Request fanout histogram
system.tol2bus.snoop_fanout::4                      0      0.00%    100.00% # Request fanout histogram
system.tol2bus.snoop_fanout::overflows              0      0.00%    100.00% # Request fanout histogram
system.tol2bus.snoop_fanout::min_value              0                       # Request fanout histogram
system.tol2bus.snoop_fanout::max_value              1                       # Request fanout histogram
system.tol2bus.snoop_fanout::total           25798181                       # Request fanout histogram
system.tol2bus.reqLayer0.occupancy        19443375000                       # Layer occupancy (ticks)
system.tol2bus.reqLayer0.utilization              1.7                       # Layer utilization (%)
system.tol2bus.respLayer0.occupancy           1382000                       # Layer occupancy (ticks)
system.tol2bus.respLayer0.utilization             0.0                       # Layer utilization (%)
system.tol2bus.respLayer1.occupancy       12963222000                       # Layer occupancy (ticks)
system.tol2bus.respLayer1.utilization             1.2                       # Layer utilization (%)

---------- End Simulation Statistics   ----------
