
---------- Begin Simulation Statistics ----------
sim_seconds                                  0.096834                       # Number of seconds simulated
sim_ticks                                 96834165500                       # Number of ticks simulated
final_tick                                96834165500                       # Number of ticks from beginning of simulation (restored from checkpoints and never reset)
sim_freq                                 1000000000000                       # Frequency of simulated ticks
host_inst_rate                                 523117                       # Simulator instruction rate (inst/s)
host_op_rate                                   680204                       # Simulator op (including micro ops) rate (op/s)
host_tick_rate                             1013112139                       # Simulator tick rate (ticks/s)
host_mem_usage                                 870904                       # Number of bytes of host memory used
host_seconds                                    95.58                       # Real time elapsed on the host
sim_insts                                    50000001                       # Number of instructions simulated
sim_ops                                      65014465                       # Number of ops (including micro ops) simulated
system.voltage_domain.voltage                       1                       # Voltage in Volts
system.clk_domain.clock                          1000                       # Clock period in ticks
system.mem_ctrls.bytes_read::cpu.inst           72352                       # Number of bytes read from this memory
system.mem_ctrls.bytes_read::cpu.data          232576                       # Number of bytes read from this memory
system.mem_ctrls.bytes_read::total             304928                       # Number of bytes read from this memory
system.mem_ctrls.bytes_inst_read::cpu.inst        72352                       # Number of instructions bytes read from this memory
system.mem_ctrls.bytes_inst_read::total         72352                       # Number of instructions bytes read from this memory
system.mem_ctrls.num_reads::cpu.inst             2261                       # Number of read requests responded to by this memory
system.mem_ctrls.num_reads::cpu.data             7268                       # Number of read requests responded to by this memory
system.mem_ctrls.num_reads::total                9529                       # Number of read requests responded to by this memory
system.mem_ctrls.bw_read::cpu.inst             747174                       # Total read bandwidth from this memory (bytes/s)
system.mem_ctrls.bw_read::cpu.data            2401797                       # Total read bandwidth from this memory (bytes/s)
system.mem_ctrls.bw_read::total               3148971                       # Total read bandwidth from this memory (bytes/s)
system.mem_ctrls.bw_inst_read::cpu.inst        747174                       # Instruction read bandwidth from this memory (bytes/s)
system.mem_ctrls.bw_inst_read::total           747174                       # Instruction read bandwidth from this memory (bytes/s)
system.mem_ctrls.bw_total::cpu.inst            747174                       # Total bandwidth to/from this memory (bytes/s)
system.mem_ctrls.bw_total::cpu.data           2401797                       # Total bandwidth to/from this memory (bytes/s)
system.mem_ctrls.bw_total::total              3148971                       # Total bandwidth to/from this memory (bytes/s)
system.mem_ctrls.readReqs                        9529                       # Number of read requests accepted
system.mem_ctrls.writeReqs                          0                       # Number of write requests accepted
system.mem_ctrls.readBursts                      9529                       # Number of DRAM read bursts, including those serviced by the write queue
system.mem_ctrls.writeBursts                        0                       # Number of DRAM write bursts, including those merged in the write queue
system.mem_ctrls.bytesReadDRAM                 609856                       # Total number of bytes read from DRAM
system.mem_ctrls.bytesReadWrQ                       0                       # Total number of bytes read from write queue
system.mem_ctrls.bytesWritten                       0                       # Total number of bytes written to DRAM
system.mem_ctrls.bytesReadSys                  304928                       # Total read bytes from the system interface side
system.mem_ctrls.bytesWrittenSys                    0                       # Total written bytes from the system interface side
system.mem_ctrls.servicedByWrQ                      0                       # Number of DRAM read bursts serviced by the write queue
system.mem_ctrls.mergedWrBursts                     0                       # Number of DRAM write bursts merged with an existing one
system.mem_ctrls.neitherReadNorWriteReqs            0                       # Number of requests that are neither read nor write
system.mem_ctrls.perBankRdBursts::0               500                       # Per bank write bursts
system.mem_ctrls.perBankRdBursts::1               418                       # Per bank write bursts
system.mem_ctrls.perBankRdBursts::2               563                       # Per bank write bursts
system.mem_ctrls.perBankRdBursts::3               354                       # Per bank write bursts
system.mem_ctrls.perBankRdBursts::4               633                       # Per bank write bursts
system.mem_ctrls.perBankRdBursts::5               511                       # Per bank write bursts
system.mem_ctrls.perBankRdBursts::6               405                       # Per bank write bursts
system.mem_ctrls.perBankRdBursts::7               527                       # Per bank write bursts
system.mem_ctrls.perBankRdBursts::8               667                       # Per bank write bursts
system.mem_ctrls.perBankRdBursts::9               711                       # Per bank write bursts
system.mem_ctrls.perBankRdBursts::10              821                       # Per bank write bursts
system.mem_ctrls.perBankRdBursts::11              880                       # Per bank write bursts
system.mem_ctrls.perBankRdBursts::12              693                       # Per bank write bursts
system.mem_ctrls.perBankRdBursts::13              628                       # Per bank write bursts
system.mem_ctrls.perBankRdBursts::14              596                       # Per bank write bursts
system.mem_ctrls.perBankRdBursts::15              622                       # Per bank write bursts
system.mem_ctrls.perBankWrBursts::0                 0                       # Per bank write bursts
system.mem_ctrls.perBankWrBursts::1                 0                       # Per bank write bursts
system.mem_ctrls.perBankWrBursts::2                 0                       # Per bank write bursts
system.mem_ctrls.perBankWrBursts::3                 0                       # Per bank write bursts
system.mem_ctrls.perBankWrBursts::4                 0                       # Per bank write bursts
system.mem_ctrls.perBankWrBursts::5                 0                       # Per bank write bursts
system.mem_ctrls.perBankWrBursts::6                 0                       # Per bank write bursts
system.mem_ctrls.perBankWrBursts::7                 0                       # Per bank write bursts
system.mem_ctrls.perBankWrBursts::8                 0                       # Per bank write bursts
system.mem_ctrls.perBankWrBursts::9                 0                       # Per bank write bursts
system.mem_ctrls.perBankWrBursts::10                0                       # Per bank write bursts
system.mem_ctrls.perBankWrBursts::11                0                       # Per bank write bursts
system.mem_ctrls.perBankWrBursts::12                0                       # Per bank write bursts
system.mem_ctrls.perBankWrBursts::13                0                       # Per bank write bursts
system.mem_ctrls.perBankWrBursts::14                0                       # Per bank write bursts
system.mem_ctrls.perBankWrBursts::15                0                       # Per bank write bursts
system.mem_ctrls.numRdRetry                         0                       # Number of times read queue was full causing retry
system.mem_ctrls.numWrRetry                         0                       # Number of times write queue was full causing retry
system.mem_ctrls.totGap                   94182536500                       # Total gap between requests
system.mem_ctrls.readPktSize::0                     0                       # Read request sizes (log2)
system.mem_ctrls.readPktSize::1                     0                       # Read request sizes (log2)
system.mem_ctrls.readPktSize::2                     0                       # Read request sizes (log2)
system.mem_ctrls.readPktSize::3                     0                       # Read request sizes (log2)
system.mem_ctrls.readPktSize::4                     0                       # Read request sizes (log2)
system.mem_ctrls.readPktSize::5                  9529                       # Read request sizes (log2)
system.mem_ctrls.readPktSize::6                     0                       # Read request sizes (log2)
system.mem_ctrls.writePktSize::0                    0                       # Write request sizes (log2)
system.mem_ctrls.writePktSize::1                    0                       # Write request sizes (log2)
system.mem_ctrls.writePktSize::2                    0                       # Write request sizes (log2)
system.mem_ctrls.writePktSize::3                    0                       # Write request sizes (log2)
system.mem_ctrls.writePktSize::4                    0                       # Write request sizes (log2)
system.mem_ctrls.writePktSize::5                    0                       # Write request sizes (log2)
system.mem_ctrls.writePktSize::6                    0                       # Write request sizes (log2)
system.mem_ctrls.rdQLenPdf::0                    9217                       # What read queue length does an incoming req see
system.mem_ctrls.rdQLenPdf::1                     170                       # What read queue length does an incoming req see
system.mem_ctrls.rdQLenPdf::2                     142                       # What read queue length does an incoming req see
system.mem_ctrls.rdQLenPdf::3                       0                       # What read queue length does an incoming req see
system.mem_ctrls.rdQLenPdf::4                       0                       # What read queue length does an incoming req see
system.mem_ctrls.rdQLenPdf::5                       0                       # What read queue length does an incoming req see
system.mem_ctrls.rdQLenPdf::6                       0                       # What read queue length does an incoming req see
system.mem_ctrls.rdQLenPdf::7                       0                       # What read queue length does an incoming req see
system.mem_ctrls.rdQLenPdf::8                       0                       # What read queue length does an incoming req see
system.mem_ctrls.rdQLenPdf::9                       0                       # What read queue length does an incoming req see
system.mem_ctrls.rdQLenPdf::10                      0                       # What read queue length does an incoming req see
system.mem_ctrls.rdQLenPdf::11                      0                       # What read queue length does an incoming req see
system.mem_ctrls.rdQLenPdf::12                      0                       # What read queue length does an incoming req see
system.mem_ctrls.rdQLenPdf::13                      0                       # What read queue length does an incoming req see
system.mem_ctrls.rdQLenPdf::14                      0                       # What read queue length does an incoming req see
system.mem_ctrls.rdQLenPdf::15                      0                       # What read queue length does an incoming req see
system.mem_ctrls.rdQLenPdf::16                      0                       # What read queue length does an incoming req see
system.mem_ctrls.rdQLenPdf::17                      0                       # What read queue length does an incoming req see
system.mem_ctrls.rdQLenPdf::18                      0                       # What read queue length does an incoming req see
system.mem_ctrls.rdQLenPdf::19                      0                       # What read queue length does an incoming req see
system.mem_ctrls.rdQLenPdf::20                      0                       # What read queue length does an incoming req see
system.mem_ctrls.rdQLenPdf::21                      0                       # What read queue length does an incoming req see
system.mem_ctrls.rdQLenPdf::22                      0                       # What read queue length does an incoming req see
system.mem_ctrls.rdQLenPdf::23                      0                       # What read queue length does an incoming req see
system.mem_ctrls.rdQLenPdf::24                      0                       # What read queue length does an incoming req see
system.mem_ctrls.rdQLenPdf::25                      0                       # What read queue length does an incoming req see
system.mem_ctrls.rdQLenPdf::26                      0                       # What read queue length does an incoming req see
system.mem_ctrls.rdQLenPdf::27                      0                       # What read queue length does an incoming req see
system.mem_ctrls.rdQLenPdf::28                      0                       # What read queue length does an incoming req see
system.mem_ctrls.rdQLenPdf::29                      0                       # What read queue length does an incoming req see
system.mem_ctrls.rdQLenPdf::30                      0                       # What read queue length does an incoming req see
system.mem_ctrls.rdQLenPdf::31                      0                       # What read queue length does an incoming req see
system.mem_ctrls.wrQLenPdf::0                       0                       # What write queue length does an incoming req see
system.mem_ctrls.wrQLenPdf::1                       0                       # What write queue length does an incoming req see
system.mem_ctrls.wrQLenPdf::2                       0                       # What write queue length does an incoming req see
system.mem_ctrls.wrQLenPdf::3                       0                       # What write queue length does an incoming req see
system.mem_ctrls.wrQLenPdf::4                       0                       # What write queue length does an incoming req see
system.mem_ctrls.wrQLenPdf::5                       0                       # What write queue length does an incoming req see
system.mem_ctrls.wrQLenPdf::6                       0                       # What write queue length does an incoming req see
system.mem_ctrls.wrQLenPdf::7                       0                       # What write queue length does an incoming req see
system.mem_ctrls.wrQLenPdf::8                       0                       # What write queue length does an incoming req see
system.mem_ctrls.wrQLenPdf::9                       0                       # What write queue length does an incoming req see
system.mem_ctrls.wrQLenPdf::10                      0                       # What write queue length does an incoming req see
system.mem_ctrls.wrQLenPdf::11                      0                       # What write queue length does an incoming req see
system.mem_ctrls.wrQLenPdf::12                      0                       # What write queue length does an incoming req see
system.mem_ctrls.wrQLenPdf::13                      0                       # What write queue length does an incoming req see
system.mem_ctrls.wrQLenPdf::14                      0                       # What write queue length does an incoming req see
system.mem_ctrls.wrQLenPdf::15                      0                       # What write queue length does an incoming req see
system.mem_ctrls.wrQLenPdf::16                      0                       # What write queue length does an incoming req see
system.mem_ctrls.wrQLenPdf::17                      0                       # What write queue length does an incoming req see
system.mem_ctrls.wrQLenPdf::18                      0                       # What write queue length does an incoming req see
system.mem_ctrls.wrQLenPdf::19                      0                       # What write queue length does an incoming req see
system.mem_ctrls.wrQLenPdf::20                      0                       # What write queue length does an incoming req see
system.mem_ctrls.wrQLenPdf::21                      0                       # What write queue length does an incoming req see
system.mem_ctrls.wrQLenPdf::22                      0                       # What write queue length does an incoming req see
system.mem_ctrls.wrQLenPdf::23                      0                       # What write queue length does an incoming req see
system.mem_ctrls.wrQLenPdf::24                      0                       # What write queue length does an incoming req see
system.mem_ctrls.wrQLenPdf::25                      0                       # What write queue length does an incoming req see
system.mem_ctrls.wrQLenPdf::26                      0                       # What write queue length does an incoming req see
system.mem_ctrls.wrQLenPdf::27                      0                       # What write queue length does an incoming req see
system.mem_ctrls.wrQLenPdf::28                      0                       # What write queue length does an incoming req see
system.mem_ctrls.wrQLenPdf::29                      0                       # What write queue length does an incoming req see
system.mem_ctrls.wrQLenPdf::30                      0                       # What write queue length does an incoming req see
system.mem_ctrls.wrQLenPdf::31                      0                       # What write queue length does an incoming req see
system.mem_ctrls.wrQLenPdf::32                      0                       # What write queue length does an incoming req see
system.mem_ctrls.wrQLenPdf::33                      0                       # What write queue length does an incoming req see
system.mem_ctrls.wrQLenPdf::34                      0                       # What write queue length does an incoming req see
system.mem_ctrls.wrQLenPdf::35                      0                       # What write queue length does an incoming req see
system.mem_ctrls.wrQLenPdf::36                      0                       # What write queue length does an incoming req see
system.mem_ctrls.wrQLenPdf::37                      0                       # What write queue length does an incoming req see
system.mem_ctrls.wrQLenPdf::38                      0                       # What write queue length does an incoming req see
system.mem_ctrls.wrQLenPdf::39                      0                       # What write queue length does an incoming req see
system.mem_ctrls.wrQLenPdf::40                      0                       # What write queue length does an incoming req see
system.mem_ctrls.wrQLenPdf::41                      0                       # What write queue length does an incoming req see
system.mem_ctrls.wrQLenPdf::42                      0                       # What write queue length does an incoming req see
system.mem_ctrls.wrQLenPdf::43                      0                       # What write queue length does an incoming req see
system.mem_ctrls.wrQLenPdf::44                      0                       # What write queue length does an incoming req see
system.mem_ctrls.wrQLenPdf::45                      0                       # What write queue length does an incoming req see
system.mem_ctrls.wrQLenPdf::46                      0                       # What write queue length does an incoming req see
system.mem_ctrls.wrQLenPdf::47                      0                       # What write queue length does an incoming req see
system.mem_ctrls.wrQLenPdf::48                      0                       # What write queue length does an incoming req see
system.mem_ctrls.wrQLenPdf::49                      0                       # What write queue length does an incoming req see
system.mem_ctrls.wrQLenPdf::50                      0                       # What write queue length does an incoming req see
system.mem_ctrls.wrQLenPdf::51                      0                       # What write queue length does an incoming req see
system.mem_ctrls.wrQLenPdf::52                      0                       # What write queue length does an incoming req see
system.mem_ctrls.wrQLenPdf::53                      0                       # What write queue length does an incoming req see
system.mem_ctrls.wrQLenPdf::54                      0                       # What write queue length does an incoming req see
system.mem_ctrls.wrQLenPdf::55                      0                       # What write queue length does an incoming req see
system.mem_ctrls.wrQLenPdf::56                      0                       # What write queue length does an incoming req see
system.mem_ctrls.wrQLenPdf::57                      0                       # What write queue length does an incoming req see
system.mem_ctrls.wrQLenPdf::58                      0                       # What write queue length does an incoming req see
system.mem_ctrls.wrQLenPdf::59                      0                       # What write queue length does an incoming req see
system.mem_ctrls.wrQLenPdf::60                      0                       # What write queue length does an incoming req see
system.mem_ctrls.wrQLenPdf::61                      0                       # What write queue length does an incoming req see
system.mem_ctrls.wrQLenPdf::62                      0                       # What write queue length does an incoming req see
system.mem_ctrls.wrQLenPdf::63                      0                       # What write queue length does an incoming req see
system.mem_ctrls.bytesPerActivate::samples         2686                       # Bytes accessed per row activation
system.mem_ctrls.bytesPerActivate::mean    227.049888                       # Bytes accessed per row activation
system.mem_ctrls.bytesPerActivate::gmean   150.357930                       # Bytes accessed per row activation
system.mem_ctrls.bytesPerActivate::stdev   269.253639                       # Bytes accessed per row activation
system.mem_ctrls.bytesPerActivate::0-127          669     24.91%     24.91% # Bytes accessed per row activation
system.mem_ctrls.bytesPerActivate::128-255         1453     54.10%     79.00% # Bytes accessed per row activation
system.mem_ctrls.bytesPerActivate::256-383          148      5.51%     84.51% # Bytes accessed per row activation
system.mem_ctrls.bytesPerActivate::384-511           82      3.05%     87.57% # Bytes accessed per row activation
system.mem_ctrls.bytesPerActivate::512-639           50      1.86%     89.43% # Bytes accessed per row activation
system.mem_ctrls.bytesPerActivate::640-767           31      1.15%     90.58% # Bytes accessed per row activation
system.mem_ctrls.bytesPerActivate::768-895           26      0.97%     91.55% # Bytes accessed per row activation
system.mem_ctrls.bytesPerActivate::896-1023           26      0.97%     92.52% # Bytes accessed per row activation
system.mem_ctrls.bytesPerActivate::1024-1151          201      7.48%    100.00% # Bytes accessed per row activation
system.mem_ctrls.bytesPerActivate::total         2686                       # Bytes accessed per row activation
system.mem_ctrls.totQLat                     78415250                       # Total ticks spent queuing
system.mem_ctrls.totMemAccLat               257084000                       # Total ticks spent from burst creation until serviced by the DRAM
system.mem_ctrls.totBusLat                   47645000                       # Total ticks spent in databus transfers
system.mem_ctrls.avgQLat                      8229.12                       # Average queueing delay per DRAM burst
system.mem_ctrls.avgBusLat                    5000.00                       # Average bus latency per DRAM burst
system.mem_ctrls.avgMemAccLat                26979.12                       # Average memory access latency per DRAM burst
system.mem_ctrls.avgRdBW                         6.30                       # Average DRAM read bandwidth in MiByte/s
system.mem_ctrls.avgWrBW                         0.00                       # Average achieved write bandwidth in MiByte/s
system.mem_ctrls.avgRdBWSys                      3.15                       # Average system read bandwidth in MiByte/s
system.mem_ctrls.avgWrBWSys                      0.00                       # Average system write bandwidth in MiByte/s
system.mem_ctrls.peakBW                      12800.00                       # Theoretical peak bandwidth in MiByte/s
system.mem_ctrls.busUtil                         0.05                       # Data bus utilization in percentage
system.mem_ctrls.busUtilRead                     0.05                       # Data bus utilization in percentage for reads
system.mem_ctrls.busUtilWrite                    0.00                       # Data bus utilization in percentage for writes
system.mem_ctrls.avgRdQLen                       1.00                       # Average read queue length when enqueuing
system.mem_ctrls.avgWrQLen                       0.00                       # Average write queue length when enqueuing
system.mem_ctrls.readRowHits                     6843                       # Number of row buffer hits during reads
system.mem_ctrls.writeRowHits                       0                       # Number of row buffer hits during writes
system.mem_ctrls.readRowHitRate                 71.81                       # Row buffer hit rate for reads
system.mem_ctrls.writeRowHitRate                  nan                       # Row buffer hit rate for writes
system.mem_ctrls.avgGap                    9883779.67                       # Average gap between requests
system.mem_ctrls.pageHitRate                    71.81                       # Row buffer hit rate, read and write combined
system.mem_ctrls_0.actEnergy                  9170280                       # Energy for activate commands per rank (pJ)
system.mem_ctrls_0.preEnergy                  5003625                       # Energy for precharge commands per rank (pJ)
system.mem_ctrls_0.readEnergy                30505800                       # Energy for read commands per rank (pJ)
system.mem_ctrls_0.writeEnergy                      0                       # Energy for write commands per rank (pJ)
system.mem_ctrls_0.refreshEnergy           6324452160                       # Energy for refresh commands per rank (pJ)
system.mem_ctrls_0.actBackEnergy           4510555065                       # Energy for active background per rank (pJ)
system.mem_ctrls_0.preBackEnergy          54141403500                       # Energy for precharge background per rank (pJ)
system.mem_ctrls_0.totalEnergy            65021090430                       # Total energy per rank (pJ)
system.mem_ctrls_0.averagePower            671.497016                       # Core power per rank (mW)
system.mem_ctrls_0.memoryStateTime::IDLE  90055376250                       # Time in different power states
system.mem_ctrls_0.memoryStateTime::REF    3233360000                       # Time in different power states
system.mem_ctrls_0.memoryStateTime::PRE_PDN            0                       # Time in different power states
system.mem_ctrls_0.memoryStateTime::ACT    3541328750                       # Time in different power states
system.mem_ctrls_0.memoryStateTime::ACT_PDN            0                       # Time in different power states
system.mem_ctrls_1.actEnergy                 11135880                       # Energy for activate commands per rank (pJ)
system.mem_ctrls_1.preEnergy                  6076125                       # Energy for precharge commands per rank (pJ)
system.mem_ctrls_1.readEnergy                43820400                       # Energy for read commands per rank (pJ)
system.mem_ctrls_1.writeEnergy                      0                       # Energy for write commands per rank (pJ)
system.mem_ctrls_1.refreshEnergy           6324452160                       # Energy for refresh commands per rank (pJ)
system.mem_ctrls_1.actBackEnergy           4716745155                       # Energy for active background per rank (pJ)
system.mem_ctrls_1.preBackEnergy          53960535000                       # Energy for precharge background per rank (pJ)
system.mem_ctrls_1.totalEnergy            65062764720                       # Total energy per rank (pJ)
system.mem_ctrls_1.averagePower            671.927401                       # Core power per rank (mW)
system.mem_ctrls_1.memoryStateTime::IDLE  89753377250                       # Time in different power states
system.mem_ctrls_1.memoryStateTime::REF    3233360000                       # Time in different power states
system.mem_ctrls_1.memoryStateTime::PRE_PDN            0                       # Time in different power states
system.mem_ctrls_1.memoryStateTime::ACT    3843327750                       # Time in different power states
system.mem_ctrls_1.memoryStateTime::ACT_PDN            0                       # Time in different power states
system.cpu.branchPred.lookups                 2859327                       # Number of BP lookups
system.cpu.branchPred.condPredicted           2859327                       # Number of conditional branches predicted
system.cpu.branchPred.condIncorrect            273192                       # Number of conditional branches incorrect
system.cpu.branchPred.BTBLookups              2055348                       # Number of BTB lookups
system.cpu.branchPred.BTBHits                 2033332                       # Number of BTB hits
system.cpu.branchPred.BTBCorrect                    0                       # Number of correct BTB predictions (this stat may not work properly.
system.cpu.branchPred.BTBHitPct             98.928843                       # BTB Hit Percentage
system.cpu.branchPred.BTBMissPct             1.071157                       # BTB Miss Percentage
system.cpu.branchPred.usedRAS                   82194                       # Number of times the RAS was used to get a target.
system.cpu.branchPred.RASInCorrect                827                       # Number of incorrect RAS predictions.
system.cpu_voltage_domain.voltage                   1                       # Voltage in Volts
system.cpu_clk_domain.clock                       500                       # Clock period in ticks
system.cpu.apic_clk_domain.clock                 8000                       # Clock period in ticks
system.cpu.workload.num_syscalls                   34                       # Number of system calls
system.cpu.numCycles                        193668331                       # number of cpu cycles simulated
system.cpu.numWorkItemsStarted                      0                       # number of work items this cpu started
system.cpu.numWorkItemsCompleted                    0                       # number of work items this cpu completed
system.cpu.committedInsts                    50000001                       # Number of instructions committed
system.cpu.committedOps                      65014465                       # Number of ops (including micro ops) committed
system.cpu.num_int_alu_accesses              62933457                       # Number of integer alu accesses
system.cpu.num_fp_alu_accesses                2948954                       # Number of float alu accesses
system.cpu.num_func_calls                      164791                       # number of times a function call or return occured
system.cpu.num_conditional_control_insts      2606507                       # number of instructions that are conditional controls
system.cpu.num_int_insts                     62933457                       # number of integer instructions
system.cpu.num_fp_insts                       2948954                       # number of float instructions
system.cpu.num_int_register_reads           147292995                       # number of times the integer registers were read
system.cpu.num_int_register_writes           57136355                       # number of times the integer registers were written
system.cpu.num_fp_register_reads              2505840                       # number of times the floating registers were read
system.cpu.num_fp_register_writes             2527243                       # number of times the floating registers were written
system.cpu.num_cc_register_reads             19215973                       # number of times the CC registers were read
system.cpu.num_cc_register_writes            26132447                       # number of times the CC registers were written
system.cpu.num_mem_refs                      25502514                       # number of memory refs
system.cpu.num_load_insts                    21863457                       # Number of load instructions
system.cpu.num_store_insts                    3639057                       # Number of store instructions
system.cpu.num_idle_cycles                          0                       # Number of idle cycles
system.cpu.num_busy_cycles                  193668331                       # Number of busy cycles
system.cpu.not_idle_fraction                        1                       # Percentage of non-idle cycles
system.cpu.idle_fraction                            0                       # Percentage of idle cycles
system.cpu.Branches                           2859327                       # Number of branches fetched
system.cpu.predictedBranches                  2115526                       # Number of branches predicted as taken
system.cpu.BranchMispred                       273192                       # Number of branch mispredictions
system.cpu.numBranchMispreadPercent          9.554416                       # Number of Branch Mispread Percent
system.cpu.op_class::No_OpClass                195747      0.30%      0.30% # Class of executed instruction
system.cpu.op_class::IntAlu                  36732834     56.50%     56.80% # Class of executed instruction
system.cpu.op_class::IntMult                    70748      0.11%     56.91% # Class of executed instruction
system.cpu.op_class::IntDiv                    629626      0.97%     57.88% # Class of executed instruction
system.cpu.op_class::FloatAdd                 1882996      2.90%     60.77% # Class of executed instruction
system.cpu.op_class::FloatCmp                       0      0.00%     60.77% # Class of executed instruction
system.cpu.op_class::FloatCvt                       0      0.00%     60.77% # Class of executed instruction
system.cpu.op_class::FloatMult                      0      0.00%     60.77% # Class of executed instruction
system.cpu.op_class::FloatDiv                       0      0.00%     60.77% # Class of executed instruction
system.cpu.op_class::FloatSqrt                      0      0.00%     60.77% # Class of executed instruction
system.cpu.op_class::SimdAdd                        0      0.00%     60.77% # Class of executed instruction
system.cpu.op_class::SimdAddAcc                     0      0.00%     60.77% # Class of executed instruction
system.cpu.op_class::SimdAlu                        0      0.00%     60.77% # Class of executed instruction
system.cpu.op_class::SimdCmp                        0      0.00%     60.77% # Class of executed instruction
system.cpu.op_class::SimdCvt                        0      0.00%     60.77% # Class of executed instruction
system.cpu.op_class::SimdMisc                       0      0.00%     60.77% # Class of executed instruction
system.cpu.op_class::SimdMult                       0      0.00%     60.77% # Class of executed instruction
system.cpu.op_class::SimdMultAcc                    0      0.00%     60.77% # Class of executed instruction
system.cpu.op_class::SimdShift                      0      0.00%     60.77% # Class of executed instruction
system.cpu.op_class::SimdShiftAcc                   0      0.00%     60.77% # Class of executed instruction
system.cpu.op_class::SimdSqrt                       0      0.00%     60.77% # Class of executed instruction
system.cpu.op_class::SimdFloatAdd                   0      0.00%     60.77% # Class of executed instruction
system.cpu.op_class::SimdFloatAlu                   0      0.00%     60.77% # Class of executed instruction
system.cpu.op_class::SimdFloatCmp                   0      0.00%     60.77% # Class of executed instruction
system.cpu.op_class::SimdFloatCvt                   0      0.00%     60.77% # Class of executed instruction
system.cpu.op_class::SimdFloatDiv                   0      0.00%     60.77% # Class of executed instruction
system.cpu.op_class::SimdFloatMisc                  0      0.00%     60.77% # Class of executed instruction
system.cpu.op_class::SimdFloatMult                  0      0.00%     60.77% # Class of executed instruction
system.cpu.op_class::SimdFloatMultAcc               0      0.00%     60.77% # Class of executed instruction
system.cpu.op_class::SimdFloatSqrt                  0      0.00%     60.77% # Class of executed instruction
system.cpu.op_class::MemRead                 21863457     33.63%     94.40% # Class of executed instruction
system.cpu.op_class::MemWrite                 3639057      5.60%    100.00% # Class of executed instruction
system.cpu.op_class::IprAccess                      0      0.00%    100.00% # Class of executed instruction
system.cpu.op_class::InstPrefetch                   0      0.00%    100.00% # Class of executed instruction
system.cpu.op_class::total                   65014465                       # Class of executed instruction
system.cpu.dcache.tags.replacements             94172                       # number of replacements
system.cpu.dcache.tags.tagsinuse          2028.904383                       # Cycle average of tags in use
system.cpu.dcache.tags.total_refs            25407907                       # Total number of references to valid blocks.
system.cpu.dcache.tags.sampled_refs             96220                       # Sample count of references to valid blocks.
system.cpu.dcache.tags.avg_refs            264.060559                       # Average number of references to valid blocks.
system.cpu.dcache.tags.warmup_cycle        3518170500                       # Cycle when the warmup percentage was hit.
system.cpu.dcache.tags.occ_blocks::cpu.data  2028.904383                       # Average occupied blocks per requestor
system.cpu.dcache.tags.occ_percent::cpu.data     0.990676                       # Average percentage of cache occupancy
system.cpu.dcache.tags.occ_percent::total     0.990676                       # Average percentage of cache occupancy
system.cpu.dcache.tags.occ_task_id_blocks::1024         2048                       # Occupied blocks per task id
system.cpu.dcache.tags.age_task_id_blocks_1024::0           12                       # Occupied blocks per task id
system.cpu.dcache.tags.age_task_id_blocks_1024::1           69                       # Occupied blocks per task id
system.cpu.dcache.tags.age_task_id_blocks_1024::2          319                       # Occupied blocks per task id
system.cpu.dcache.tags.age_task_id_blocks_1024::3         1648                       # Occupied blocks per task id
system.cpu.dcache.tags.occ_task_id_percent::1024            1                       # Percentage of cache occupancy per task id
system.cpu.dcache.tags.tag_accesses          51104474                       # Number of tag accesses
system.cpu.dcache.tags.data_accesses         51104474                       # Number of data accesses
system.cpu.dcache.ReadReq_hits::cpu.data     21839358                       # number of ReadReq hits
system.cpu.dcache.ReadReq_hits::total        21839358                       # number of ReadReq hits
system.cpu.dcache.WriteReq_hits::cpu.data      3567996                       # number of WriteReq hits
system.cpu.dcache.WriteReq_hits::total        3567996                       # number of WriteReq hits
system.cpu.dcache.SoftPFReq_hits::cpu.data          553                       # number of SoftPFReq hits
system.cpu.dcache.SoftPFReq_hits::total           553                       # number of SoftPFReq hits
system.cpu.dcache.demand_hits::cpu.data      25407354                       # number of demand (read+write) hits
system.cpu.dcache.demand_hits::total         25407354                       # number of demand (read+write) hits
system.cpu.dcache.overall_hits::cpu.data     25407907                       # number of overall hits
system.cpu.dcache.overall_hits::total        25407907                       # number of overall hits
system.cpu.dcache.ReadReq_misses::cpu.data        22664                       # number of ReadReq misses
system.cpu.dcache.ReadReq_misses::total         22664                       # number of ReadReq misses
system.cpu.dcache.WriteReq_misses::cpu.data        71163                       # number of WriteReq misses
system.cpu.dcache.WriteReq_misses::total        71163                       # number of WriteReq misses
system.cpu.dcache.SoftPFReq_misses::cpu.data         2393                       # number of SoftPFReq misses
system.cpu.dcache.SoftPFReq_misses::total         2393                       # number of SoftPFReq misses
system.cpu.dcache.demand_misses::cpu.data        93827                       # number of demand (read+write) misses
system.cpu.dcache.demand_misses::total          93827                       # number of demand (read+write) misses
system.cpu.dcache.overall_misses::cpu.data        96220                       # number of overall misses
system.cpu.dcache.overall_misses::total         96220                       # number of overall misses
system.cpu.dcache.ReadReq_miss_latency::cpu.data    369517000                       # number of ReadReq miss cycles
system.cpu.dcache.ReadReq_miss_latency::total    369517000                       # number of ReadReq miss cycles
system.cpu.dcache.WriteReq_miss_latency::cpu.data   1315091500                       # number of WriteReq miss cycles
system.cpu.dcache.WriteReq_miss_latency::total   1315091500                       # number of WriteReq miss cycles
system.cpu.dcache.demand_miss_latency::cpu.data   1684608500                       # number of demand (read+write) miss cycles
system.cpu.dcache.demand_miss_latency::total   1684608500                       # number of demand (read+write) miss cycles
system.cpu.dcache.overall_miss_latency::cpu.data   1684608500                       # number of overall miss cycles
system.cpu.dcache.overall_miss_latency::total   1684608500                       # number of overall miss cycles
system.cpu.dcache.ReadReq_accesses::cpu.data     21862022                       # number of ReadReq accesses(hits+misses)
system.cpu.dcache.ReadReq_accesses::total     21862022                       # number of ReadReq accesses(hits+misses)
system.cpu.dcache.WriteReq_accesses::cpu.data      3639159                       # number of WriteReq accesses(hits+misses)
system.cpu.dcache.WriteReq_accesses::total      3639159                       # number of WriteReq accesses(hits+misses)
system.cpu.dcache.SoftPFReq_accesses::cpu.data         2946                       # number of SoftPFReq accesses(hits+misses)
system.cpu.dcache.SoftPFReq_accesses::total         2946                       # number of SoftPFReq accesses(hits+misses)
system.cpu.dcache.demand_accesses::cpu.data     25501181                       # number of demand (read+write) accesses
system.cpu.dcache.demand_accesses::total     25501181                       # number of demand (read+write) accesses
system.cpu.dcache.overall_accesses::cpu.data     25504127                       # number of overall (read+write) accesses
system.cpu.dcache.overall_accesses::total     25504127                       # number of overall (read+write) accesses
system.cpu.dcache.ReadReq_miss_rate::cpu.data     0.001037                       # miss rate for ReadReq accesses
system.cpu.dcache.ReadReq_miss_rate::total     0.001037                       # miss rate for ReadReq accesses
system.cpu.dcache.WriteReq_miss_rate::cpu.data     0.019555                       # miss rate for WriteReq accesses
system.cpu.dcache.WriteReq_miss_rate::total     0.019555                       # miss rate for WriteReq accesses
system.cpu.dcache.SoftPFReq_miss_rate::cpu.data     0.812288                       # miss rate for SoftPFReq accesses
system.cpu.dcache.SoftPFReq_miss_rate::total     0.812288                       # miss rate for SoftPFReq accesses
system.cpu.dcache.demand_miss_rate::cpu.data     0.003679                       # miss rate for demand accesses
system.cpu.dcache.demand_miss_rate::total     0.003679                       # miss rate for demand accesses
system.cpu.dcache.overall_miss_rate::cpu.data     0.003773                       # miss rate for overall accesses
system.cpu.dcache.overall_miss_rate::total     0.003773                       # miss rate for overall accesses
system.cpu.dcache.ReadReq_avg_miss_latency::cpu.data 16304.138722                       # average ReadReq miss latency
system.cpu.dcache.ReadReq_avg_miss_latency::total 16304.138722                       # average ReadReq miss latency
system.cpu.dcache.WriteReq_avg_miss_latency::cpu.data 18479.989601                       # average WriteReq miss latency
system.cpu.dcache.WriteReq_avg_miss_latency::total 18479.989601                       # average WriteReq miss latency
system.cpu.dcache.demand_avg_miss_latency::cpu.data 17954.410777                       # average overall miss latency
system.cpu.dcache.demand_avg_miss_latency::total 17954.410777                       # average overall miss latency
system.cpu.dcache.overall_avg_miss_latency::cpu.data 17507.882977                       # average overall miss latency
system.cpu.dcache.overall_avg_miss_latency::total 17507.882977                       # average overall miss latency
system.cpu.dcache.blocked_cycles::no_mshrs           14                       # number of cycles access was blocked
system.cpu.dcache.blocked_cycles::no_targets            0                       # number of cycles access was blocked
system.cpu.dcache.blocked::no_mshrs                 1                       # number of cycles access was blocked
system.cpu.dcache.blocked::no_targets               0                       # number of cycles access was blocked
system.cpu.dcache.avg_blocked_cycles::no_mshrs           14                       # average number of cycles each access was blocked
system.cpu.dcache.avg_blocked_cycles::no_targets          nan                       # average number of cycles each access was blocked
system.cpu.dcache.fast_writes                       0                       # number of fast writes performed
system.cpu.dcache.cache_copies                      0                       # number of cache copies performed
system.cpu.dcache.writebacks::writebacks        92549                       # number of writebacks
system.cpu.dcache.writebacks::total             92549                       # number of writebacks
system.cpu.dcache.ReadReq_mshr_misses::cpu.data        22664                       # number of ReadReq MSHR misses
system.cpu.dcache.ReadReq_mshr_misses::total        22664                       # number of ReadReq MSHR misses
system.cpu.dcache.WriteReq_mshr_misses::cpu.data        71163                       # number of WriteReq MSHR misses
system.cpu.dcache.WriteReq_mshr_misses::total        71163                       # number of WriteReq MSHR misses
system.cpu.dcache.SoftPFReq_mshr_misses::cpu.data         2393                       # number of SoftPFReq MSHR misses
system.cpu.dcache.SoftPFReq_mshr_misses::total         2393                       # number of SoftPFReq MSHR misses
system.cpu.dcache.demand_mshr_misses::cpu.data        93827                       # number of demand (read+write) MSHR misses
system.cpu.dcache.demand_mshr_misses::total        93827                       # number of demand (read+write) MSHR misses
system.cpu.dcache.overall_mshr_misses::cpu.data        96220                       # number of overall MSHR misses
system.cpu.dcache.overall_mshr_misses::total        96220                       # number of overall MSHR misses
system.cpu.dcache.ReadReq_mshr_miss_latency::cpu.data    346853000                       # number of ReadReq MSHR miss cycles
system.cpu.dcache.ReadReq_mshr_miss_latency::total    346853000                       # number of ReadReq MSHR miss cycles
system.cpu.dcache.WriteReq_mshr_miss_latency::cpu.data   1243928500                       # number of WriteReq MSHR miss cycles
system.cpu.dcache.WriteReq_mshr_miss_latency::total   1243928500                       # number of WriteReq MSHR miss cycles
system.cpu.dcache.SoftPFReq_mshr_miss_latency::cpu.data     50856000                       # number of SoftPFReq MSHR miss cycles
system.cpu.dcache.SoftPFReq_mshr_miss_latency::total     50856000                       # number of SoftPFReq MSHR miss cycles
system.cpu.dcache.demand_mshr_miss_latency::cpu.data   1590781500                       # number of demand (read+write) MSHR miss cycles
system.cpu.dcache.demand_mshr_miss_latency::total   1590781500                       # number of demand (read+write) MSHR miss cycles
system.cpu.dcache.overall_mshr_miss_latency::cpu.data   1641637500                       # number of overall MSHR miss cycles
system.cpu.dcache.overall_mshr_miss_latency::total   1641637500                       # number of overall MSHR miss cycles
system.cpu.dcache.ReadReq_mshr_miss_rate::cpu.data     0.001037                       # mshr miss rate for ReadReq accesses
system.cpu.dcache.ReadReq_mshr_miss_rate::total     0.001037                       # mshr miss rate for ReadReq accesses
system.cpu.dcache.WriteReq_mshr_miss_rate::cpu.data     0.019555                       # mshr miss rate for WriteReq accesses
system.cpu.dcache.WriteReq_mshr_miss_rate::total     0.019555                       # mshr miss rate for WriteReq accesses
system.cpu.dcache.SoftPFReq_mshr_miss_rate::cpu.data     0.812288                       # mshr miss rate for SoftPFReq accesses
system.cpu.dcache.SoftPFReq_mshr_miss_rate::total     0.812288                       # mshr miss rate for SoftPFReq accesses
system.cpu.dcache.demand_mshr_miss_rate::cpu.data     0.003679                       # mshr miss rate for demand accesses
system.cpu.dcache.demand_mshr_miss_rate::total     0.003679                       # mshr miss rate for demand accesses
system.cpu.dcache.overall_mshr_miss_rate::cpu.data     0.003773                       # mshr miss rate for overall accesses
system.cpu.dcache.overall_mshr_miss_rate::total     0.003773                       # mshr miss rate for overall accesses
system.cpu.dcache.ReadReq_avg_mshr_miss_latency::cpu.data 15304.138722                       # average ReadReq mshr miss latency
system.cpu.dcache.ReadReq_avg_mshr_miss_latency::total 15304.138722                       # average ReadReq mshr miss latency
system.cpu.dcache.WriteReq_avg_mshr_miss_latency::cpu.data 17479.989601                       # average WriteReq mshr miss latency
system.cpu.dcache.WriteReq_avg_mshr_miss_latency::total 17479.989601                       # average WriteReq mshr miss latency
system.cpu.dcache.SoftPFReq_avg_mshr_miss_latency::cpu.data 21251.984956                       # average SoftPFReq mshr miss latency
system.cpu.dcache.SoftPFReq_avg_mshr_miss_latency::total 21251.984956                       # average SoftPFReq mshr miss latency
system.cpu.dcache.demand_avg_mshr_miss_latency::cpu.data 16954.410777                       # average overall mshr miss latency
system.cpu.dcache.demand_avg_mshr_miss_latency::total 16954.410777                       # average overall mshr miss latency
system.cpu.dcache.overall_avg_mshr_miss_latency::cpu.data 17061.291831                       # average overall mshr miss latency
system.cpu.dcache.overall_avg_mshr_miss_latency::total 17061.291831                       # average overall mshr miss latency
system.cpu.dcache.no_allocate_misses                0                       # Number of misses that were no-allocate
system.cpu.dtb_walker_cache.tags.replacements            0                       # number of replacements
system.cpu.dtb_walker_cache.tags.tagsinuse            0                       # Cycle average of tags in use
system.cpu.dtb_walker_cache.tags.total_refs            0                       # Total number of references to valid blocks.
system.cpu.dtb_walker_cache.tags.sampled_refs            0                       # Sample count of references to valid blocks.
system.cpu.dtb_walker_cache.tags.avg_refs          nan                       # Average number of references to valid blocks.
system.cpu.dtb_walker_cache.tags.warmup_cycle            0                       # Cycle when the warmup percentage was hit.
system.cpu.dtb_walker_cache.tags.tag_accesses            0                       # Number of tag accesses
system.cpu.dtb_walker_cache.tags.data_accesses            0                       # Number of data accesses
system.cpu.dtb_walker_cache.blocked_cycles::no_mshrs            0                       # number of cycles access was blocked
system.cpu.dtb_walker_cache.blocked_cycles::no_targets            0                       # number of cycles access was blocked
system.cpu.dtb_walker_cache.blocked::no_mshrs            0                       # number of cycles access was blocked
system.cpu.dtb_walker_cache.blocked::no_targets            0                       # number of cycles access was blocked
system.cpu.dtb_walker_cache.avg_blocked_cycles::no_mshrs          nan                       # average number of cycles each access was blocked
system.cpu.dtb_walker_cache.avg_blocked_cycles::no_targets          nan                       # average number of cycles each access was blocked
system.cpu.dtb_walker_cache.fast_writes             0                       # number of fast writes performed
system.cpu.dtb_walker_cache.cache_copies            0                       # number of cache copies performed
system.cpu.dtb_walker_cache.no_allocate_misses            0                       # Number of misses that were no-allocate
system.cpu.icache.tags.replacements               214                       # number of replacements
system.cpu.icache.tags.tagsinuse          2039.009876                       # Cycle average of tags in use
system.cpu.icache.tags.total_refs            69565598                       # Total number of references to valid blocks.
system.cpu.icache.tags.sampled_refs              2273                       # Sample count of references to valid blocks.
system.cpu.icache.tags.avg_refs          30605.190497                       # Average number of references to valid blocks.
system.cpu.icache.tags.warmup_cycle                 0                       # Cycle when the warmup percentage was hit.
system.cpu.icache.tags.occ_blocks::cpu.inst  2039.009876                       # Average occupied blocks per requestor
system.cpu.icache.tags.occ_percent::cpu.inst     0.497805                       # Average percentage of cache occupancy
system.cpu.icache.tags.occ_percent::total     0.497805                       # Average percentage of cache occupancy
system.cpu.icache.tags.occ_task_id_blocks::1024         2059                       # Occupied blocks per task id
system.cpu.icache.tags.age_task_id_blocks_1024::3            4                       # Occupied blocks per task id
system.cpu.icache.tags.age_task_id_blocks_1024::4         2055                       # Occupied blocks per task id
system.cpu.icache.tags.occ_task_id_percent::1024     0.502686                       # Percentage of cache occupancy per task id
system.cpu.icache.tags.tag_accesses         139138015                       # Number of tag accesses
system.cpu.icache.tags.data_accesses        139138015                       # Number of data accesses
system.cpu.icache.ReadReq_hits::cpu.inst     69565598                       # number of ReadReq hits
system.cpu.icache.ReadReq_hits::total        69565598                       # number of ReadReq hits
system.cpu.icache.demand_hits::cpu.inst      69565598                       # number of demand (read+write) hits
system.cpu.icache.demand_hits::total         69565598                       # number of demand (read+write) hits
system.cpu.icache.overall_hits::cpu.inst     69565598                       # number of overall hits
system.cpu.icache.overall_hits::total        69565598                       # number of overall hits
system.cpu.icache.ReadReq_misses::cpu.inst         2273                       # number of ReadReq misses
system.cpu.icache.ReadReq_misses::total          2273                       # number of ReadReq misses
system.cpu.icache.demand_misses::cpu.inst         2273                       # number of demand (read+write) misses
system.cpu.icache.demand_misses::total           2273                       # number of demand (read+write) misses
system.cpu.icache.overall_misses::cpu.inst         2273                       # number of overall misses
system.cpu.icache.overall_misses::total          2273                       # number of overall misses
system.cpu.icache.ReadReq_miss_latency::cpu.inst    174475500                       # number of ReadReq miss cycles
system.cpu.icache.ReadReq_miss_latency::total    174475500                       # number of ReadReq miss cycles
system.cpu.icache.demand_miss_latency::cpu.inst    174475500                       # number of demand (read+write) miss cycles
system.cpu.icache.demand_miss_latency::total    174475500                       # number of demand (read+write) miss cycles
system.cpu.icache.overall_miss_latency::cpu.inst    174475500                       # number of overall miss cycles
system.cpu.icache.overall_miss_latency::total    174475500                       # number of overall miss cycles
system.cpu.icache.ReadReq_accesses::cpu.inst     69567871                       # number of ReadReq accesses(hits+misses)
system.cpu.icache.ReadReq_accesses::total     69567871                       # number of ReadReq accesses(hits+misses)
system.cpu.icache.demand_accesses::cpu.inst     69567871                       # number of demand (read+write) accesses
system.cpu.icache.demand_accesses::total     69567871                       # number of demand (read+write) accesses
system.cpu.icache.overall_accesses::cpu.inst     69567871                       # number of overall (read+write) accesses
system.cpu.icache.overall_accesses::total     69567871                       # number of overall (read+write) accesses
system.cpu.icache.ReadReq_miss_rate::cpu.inst     0.000033                       # miss rate for ReadReq accesses
system.cpu.icache.ReadReq_miss_rate::total     0.000033                       # miss rate for ReadReq accesses
system.cpu.icache.demand_miss_rate::cpu.inst     0.000033                       # miss rate for demand accesses
system.cpu.icache.demand_miss_rate::total     0.000033                       # miss rate for demand accesses
system.cpu.icache.overall_miss_rate::cpu.inst     0.000033                       # miss rate for overall accesses
system.cpu.icache.overall_miss_rate::total     0.000033                       # miss rate for overall accesses
system.cpu.icache.ReadReq_avg_miss_latency::cpu.inst 76760.008799                       # average ReadReq miss latency
system.cpu.icache.ReadReq_avg_miss_latency::total 76760.008799                       # average ReadReq miss latency
system.cpu.icache.demand_avg_miss_latency::cpu.inst 76760.008799                       # average overall miss latency
system.cpu.icache.demand_avg_miss_latency::total 76760.008799                       # average overall miss latency
system.cpu.icache.overall_avg_miss_latency::cpu.inst 76760.008799                       # average overall miss latency
system.cpu.icache.overall_avg_miss_latency::total 76760.008799                       # average overall miss latency
system.cpu.icache.blocked_cycles::no_mshrs            0                       # number of cycles access was blocked
system.cpu.icache.blocked_cycles::no_targets            0                       # number of cycles access was blocked
system.cpu.icache.blocked::no_mshrs                 0                       # number of cycles access was blocked
system.cpu.icache.blocked::no_targets               0                       # number of cycles access was blocked
system.cpu.icache.avg_blocked_cycles::no_mshrs          nan                       # average number of cycles each access was blocked
system.cpu.icache.avg_blocked_cycles::no_targets          nan                       # average number of cycles each access was blocked
system.cpu.icache.fast_writes                       0                       # number of fast writes performed
system.cpu.icache.cache_copies                      0                       # number of cache copies performed
system.cpu.icache.writebacks::writebacks          214                       # number of writebacks
system.cpu.icache.writebacks::total               214                       # number of writebacks
system.cpu.icache.ReadReq_mshr_misses::cpu.inst         2273                       # number of ReadReq MSHR misses
system.cpu.icache.ReadReq_mshr_misses::total         2273                       # number of ReadReq MSHR misses
system.cpu.icache.demand_mshr_misses::cpu.inst         2273                       # number of demand (read+write) MSHR misses
system.cpu.icache.demand_mshr_misses::total         2273                       # number of demand (read+write) MSHR misses
system.cpu.icache.overall_mshr_misses::cpu.inst         2273                       # number of overall MSHR misses
system.cpu.icache.overall_mshr_misses::total         2273                       # number of overall MSHR misses
system.cpu.icache.ReadReq_mshr_miss_latency::cpu.inst    172202500                       # number of ReadReq MSHR miss cycles
system.cpu.icache.ReadReq_mshr_miss_latency::total    172202500                       # number of ReadReq MSHR miss cycles
system.cpu.icache.demand_mshr_miss_latency::cpu.inst    172202500                       # number of demand (read+write) MSHR miss cycles
system.cpu.icache.demand_mshr_miss_latency::total    172202500                       # number of demand (read+write) MSHR miss cycles
system.cpu.icache.overall_mshr_miss_latency::cpu.inst    172202500                       # number of overall MSHR miss cycles
system.cpu.icache.overall_mshr_miss_latency::total    172202500                       # number of overall MSHR miss cycles
system.cpu.icache.ReadReq_mshr_miss_rate::cpu.inst     0.000033                       # mshr miss rate for ReadReq accesses
system.cpu.icache.ReadReq_mshr_miss_rate::total     0.000033                       # mshr miss rate for ReadReq accesses
system.cpu.icache.demand_mshr_miss_rate::cpu.inst     0.000033                       # mshr miss rate for demand accesses
system.cpu.icache.demand_mshr_miss_rate::total     0.000033                       # mshr miss rate for demand accesses
system.cpu.icache.overall_mshr_miss_rate::cpu.inst     0.000033                       # mshr miss rate for overall accesses
system.cpu.icache.overall_mshr_miss_rate::total     0.000033                       # mshr miss rate for overall accesses
system.cpu.icache.ReadReq_avg_mshr_miss_latency::cpu.inst 75760.008799                       # average ReadReq mshr miss latency
system.cpu.icache.ReadReq_avg_mshr_miss_latency::total 75760.008799                       # average ReadReq mshr miss latency
system.cpu.icache.demand_avg_mshr_miss_latency::cpu.inst 75760.008799                       # average overall mshr miss latency
system.cpu.icache.demand_avg_mshr_miss_latency::total 75760.008799                       # average overall mshr miss latency
system.cpu.icache.overall_avg_mshr_miss_latency::cpu.inst 75760.008799                       # average overall mshr miss latency
system.cpu.icache.overall_avg_mshr_miss_latency::total 75760.008799                       # average overall mshr miss latency
system.cpu.icache.no_allocate_misses                0                       # Number of misses that were no-allocate
system.cpu.itb_walker_cache.tags.replacements            0                       # number of replacements
system.cpu.itb_walker_cache.tags.tagsinuse            0                       # Cycle average of tags in use
system.cpu.itb_walker_cache.tags.total_refs            0                       # Total number of references to valid blocks.
system.cpu.itb_walker_cache.tags.sampled_refs            0                       # Sample count of references to valid blocks.
system.cpu.itb_walker_cache.tags.avg_refs          nan                       # Average number of references to valid blocks.
system.cpu.itb_walker_cache.tags.warmup_cycle            0                       # Cycle when the warmup percentage was hit.
system.cpu.itb_walker_cache.tags.tag_accesses            0                       # Number of tag accesses
system.cpu.itb_walker_cache.tags.data_accesses            0                       # Number of data accesses
system.cpu.itb_walker_cache.blocked_cycles::no_mshrs            0                       # number of cycles access was blocked
system.cpu.itb_walker_cache.blocked_cycles::no_targets            0                       # number of cycles access was blocked
system.cpu.itb_walker_cache.blocked::no_mshrs            0                       # number of cycles access was blocked
system.cpu.itb_walker_cache.blocked::no_targets            0                       # number of cycles access was blocked
system.cpu.itb_walker_cache.avg_blocked_cycles::no_mshrs          nan                       # average number of cycles each access was blocked
system.cpu.itb_walker_cache.avg_blocked_cycles::no_targets          nan                       # average number of cycles each access was blocked
system.cpu.itb_walker_cache.fast_writes             0                       # number of fast writes performed
system.cpu.itb_walker_cache.cache_copies            0                       # number of cache copies performed
system.cpu.itb_walker_cache.no_allocate_misses            0                       # Number of misses that were no-allocate
system.l2.tags.replacements                         0                       # number of replacements
system.l2.tags.tagsinuse                  7348.911705                       # Cycle average of tags in use
system.l2.tags.total_refs                       89626                       # Total number of references to valid blocks.
system.l2.tags.sampled_refs                      8089                       # Sample count of references to valid blocks.
system.l2.tags.avg_refs                     11.079985                       # Average number of references to valid blocks.
system.l2.tags.warmup_cycle                         0                       # Cycle when the warmup percentage was hit.
system.l2.tags.occ_blocks::writebacks     4059.178720                       # Average occupied blocks per requestor
system.l2.tags.occ_blocks::cpu.inst       2233.669728                       # Average occupied blocks per requestor
system.l2.tags.occ_blocks::cpu.data       1056.063257                       # Average occupied blocks per requestor
system.l2.tags.occ_percent::writebacks       0.015485                       # Average percentage of cache occupancy
system.l2.tags.occ_percent::cpu.inst         0.008521                       # Average percentage of cache occupancy
system.l2.tags.occ_percent::cpu.data         0.004029                       # Average percentage of cache occupancy
system.l2.tags.occ_percent::total            0.028034                       # Average percentage of cache occupancy
system.l2.tags.occ_task_id_blocks::1024          8089                       # Occupied blocks per task id
system.l2.tags.age_task_id_blocks_1024::0            7                       # Occupied blocks per task id
system.l2.tags.age_task_id_blocks_1024::1           40                       # Occupied blocks per task id
system.l2.tags.age_task_id_blocks_1024::2          206                       # Occupied blocks per task id
system.l2.tags.age_task_id_blocks_1024::3         3389                       # Occupied blocks per task id
system.l2.tags.age_task_id_blocks_1024::4         4447                       # Occupied blocks per task id
system.l2.tags.occ_task_id_percent::1024     0.030857                       # Percentage of cache occupancy per task id
system.l2.tags.tag_accesses                    465010                       # Number of tag accesses
system.l2.tags.data_accesses                   465010                       # Number of data accesses
system.l2.WritebackDirty_hits::writebacks        92549                       # number of WritebackDirty hits
system.l2.WritebackDirty_hits::total            92549                       # number of WritebackDirty hits
system.l2.WritebackClean_hits::writebacks          214                       # number of WritebackClean hits
system.l2.WritebackClean_hits::total              214                       # number of WritebackClean hits
system.l2.ReadExReq_hits::cpu.data              65375                       # number of ReadExReq hits
system.l2.ReadExReq_hits::total                 65375                       # number of ReadExReq hits
system.l2.ReadCleanReq_hits::cpu.inst              12                       # number of ReadCleanReq hits
system.l2.ReadCleanReq_hits::total                 12                       # number of ReadCleanReq hits
system.l2.ReadSharedReq_hits::cpu.data          23577                       # number of ReadSharedReq hits
system.l2.ReadSharedReq_hits::total             23577                       # number of ReadSharedReq hits
system.l2.demand_hits::cpu.inst                    12                       # number of demand (read+write) hits
system.l2.demand_hits::cpu.data                 88952                       # number of demand (read+write) hits
system.l2.demand_hits::total                    88964                       # number of demand (read+write) hits
system.l2.overall_hits::cpu.inst                   12                       # number of overall hits
system.l2.overall_hits::cpu.data                88952                       # number of overall hits
system.l2.overall_hits::total                   88964                       # number of overall hits
system.l2.ReadExReq_misses::cpu.data             5788                       # number of ReadExReq misses
system.l2.ReadExReq_misses::total                5788                       # number of ReadExReq misses
system.l2.ReadCleanReq_misses::cpu.inst          2261                       # number of ReadCleanReq misses
system.l2.ReadCleanReq_misses::total             2261                       # number of ReadCleanReq misses
system.l2.ReadSharedReq_misses::cpu.data         1480                       # number of ReadSharedReq misses
system.l2.ReadSharedReq_misses::total            1480                       # number of ReadSharedReq misses
system.l2.demand_misses::cpu.inst                2261                       # number of demand (read+write) misses
system.l2.demand_misses::cpu.data                7268                       # number of demand (read+write) misses
system.l2.demand_misses::total                   9529                       # number of demand (read+write) misses
system.l2.overall_misses::cpu.inst               2261                       # number of overall misses
system.l2.overall_misses::cpu.data               7268                       # number of overall misses
system.l2.overall_misses::total                  9529                       # number of overall misses
system.l2.ReadExReq_miss_latency::cpu.data    450746500                       # number of ReadExReq miss cycles
system.l2.ReadExReq_miss_latency::total     450746500                       # number of ReadExReq miss cycles
system.l2.ReadCleanReq_miss_latency::cpu.inst    168667000                       # number of ReadCleanReq miss cycles
system.l2.ReadCleanReq_miss_latency::total    168667000                       # number of ReadCleanReq miss cycles
system.l2.ReadSharedReq_miss_latency::cpu.data    112563000                       # number of ReadSharedReq miss cycles
system.l2.ReadSharedReq_miss_latency::total    112563000                       # number of ReadSharedReq miss cycles
system.l2.demand_miss_latency::cpu.inst     168667000                       # number of demand (read+write) miss cycles
system.l2.demand_miss_latency::cpu.data     563309500                       # number of demand (read+write) miss cycles
system.l2.demand_miss_latency::total        731976500                       # number of demand (read+write) miss cycles
system.l2.overall_miss_latency::cpu.inst    168667000                       # number of overall miss cycles
system.l2.overall_miss_latency::cpu.data    563309500                       # number of overall miss cycles
system.l2.overall_miss_latency::total       731976500                       # number of overall miss cycles
system.l2.WritebackDirty_accesses::writebacks        92549                       # number of WritebackDirty accesses(hits+misses)
system.l2.WritebackDirty_accesses::total        92549                       # number of WritebackDirty accesses(hits+misses)
system.l2.WritebackClean_accesses::writebacks          214                       # number of WritebackClean accesses(hits+misses)
system.l2.WritebackClean_accesses::total          214                       # number of WritebackClean accesses(hits+misses)
system.l2.ReadExReq_accesses::cpu.data          71163                       # number of ReadExReq accesses(hits+misses)
system.l2.ReadExReq_accesses::total             71163                       # number of ReadExReq accesses(hits+misses)
system.l2.ReadCleanReq_accesses::cpu.inst         2273                       # number of ReadCleanReq accesses(hits+misses)
system.l2.ReadCleanReq_accesses::total           2273                       # number of ReadCleanReq accesses(hits+misses)
system.l2.ReadSharedReq_accesses::cpu.data        25057                       # number of ReadSharedReq accesses(hits+misses)
system.l2.ReadSharedReq_accesses::total         25057                       # number of ReadSharedReq accesses(hits+misses)
system.l2.demand_accesses::cpu.inst              2273                       # number of demand (read+write) accesses
system.l2.demand_accesses::cpu.data             96220                       # number of demand (read+write) accesses
system.l2.demand_accesses::total                98493                       # number of demand (read+write) accesses
system.l2.overall_accesses::cpu.inst             2273                       # number of overall (read+write) accesses
system.l2.overall_accesses::cpu.data            96220                       # number of overall (read+write) accesses
system.l2.overall_accesses::total               98493                       # number of overall (read+write) accesses
system.l2.ReadExReq_miss_rate::cpu.data      0.081334                       # miss rate for ReadExReq accesses
system.l2.ReadExReq_miss_rate::total         0.081334                       # miss rate for ReadExReq accesses
system.l2.ReadCleanReq_miss_rate::cpu.inst     0.994721                       # miss rate for ReadCleanReq accesses
system.l2.ReadCleanReq_miss_rate::total      0.994721                       # miss rate for ReadCleanReq accesses
system.l2.ReadSharedReq_miss_rate::cpu.data     0.059065                       # miss rate for ReadSharedReq accesses
system.l2.ReadSharedReq_miss_rate::total     0.059065                       # miss rate for ReadSharedReq accesses
system.l2.demand_miss_rate::cpu.inst         0.994721                       # miss rate for demand accesses
system.l2.demand_miss_rate::cpu.data         0.075535                       # miss rate for demand accesses
system.l2.demand_miss_rate::total            0.096748                       # miss rate for demand accesses
system.l2.overall_miss_rate::cpu.inst        0.994721                       # miss rate for overall accesses
system.l2.overall_miss_rate::cpu.data        0.075535                       # miss rate for overall accesses
system.l2.overall_miss_rate::total           0.096748                       # miss rate for overall accesses
system.l2.ReadExReq_avg_miss_latency::cpu.data 77876.036628                       # average ReadExReq miss latency
system.l2.ReadExReq_avg_miss_latency::total 77876.036628                       # average ReadExReq miss latency
system.l2.ReadCleanReq_avg_miss_latency::cpu.inst 74598.407784                       # average ReadCleanReq miss latency
system.l2.ReadCleanReq_avg_miss_latency::total 74598.407784                       # average ReadCleanReq miss latency
system.l2.ReadSharedReq_avg_miss_latency::cpu.data 76056.081081                       # average ReadSharedReq miss latency
system.l2.ReadSharedReq_avg_miss_latency::total 76056.081081                       # average ReadSharedReq miss latency
system.l2.demand_avg_miss_latency::cpu.inst 74598.407784                       # average overall miss latency
system.l2.demand_avg_miss_latency::cpu.data 77505.434783                       # average overall miss latency
system.l2.demand_avg_miss_latency::total 76815.667961                       # average overall miss latency
system.l2.overall_avg_miss_latency::cpu.inst 74598.407784                       # average overall miss latency
system.l2.overall_avg_miss_latency::cpu.data 77505.434783                       # average overall miss latency
system.l2.overall_avg_miss_latency::total 76815.667961                       # average overall miss latency
system.l2.blocked_cycles::no_mshrs                  0                       # number of cycles access was blocked
system.l2.blocked_cycles::no_targets                0                       # number of cycles access was blocked
system.l2.blocked::no_mshrs                         0                       # number of cycles access was blocked
system.l2.blocked::no_targets                       0                       # number of cycles access was blocked
system.l2.avg_blocked_cycles::no_mshrs            nan                       # average number of cycles each access was blocked
system.l2.avg_blocked_cycles::no_targets          nan                       # average number of cycles each access was blocked
system.l2.fast_writes                               0                       # number of fast writes performed
system.l2.cache_copies                              0                       # number of cache copies performed
system.l2.ReadExReq_mshr_misses::cpu.data         5788                       # number of ReadExReq MSHR misses
system.l2.ReadExReq_mshr_misses::total           5788                       # number of ReadExReq MSHR misses
system.l2.ReadCleanReq_mshr_misses::cpu.inst         2261                       # number of ReadCleanReq MSHR misses
system.l2.ReadCleanReq_mshr_misses::total         2261                       # number of ReadCleanReq MSHR misses
system.l2.ReadSharedReq_mshr_misses::cpu.data         1480                       # number of ReadSharedReq MSHR misses
system.l2.ReadSharedReq_mshr_misses::total         1480                       # number of ReadSharedReq MSHR misses
system.l2.demand_mshr_misses::cpu.inst           2261                       # number of demand (read+write) MSHR misses
system.l2.demand_mshr_misses::cpu.data           7268                       # number of demand (read+write) MSHR misses
system.l2.demand_mshr_misses::total              9529                       # number of demand (read+write) MSHR misses
system.l2.overall_mshr_misses::cpu.inst          2261                       # number of overall MSHR misses
system.l2.overall_mshr_misses::cpu.data          7268                       # number of overall MSHR misses
system.l2.overall_mshr_misses::total             9529                       # number of overall MSHR misses
system.l2.ReadExReq_mshr_miss_latency::cpu.data    392866500                       # number of ReadExReq MSHR miss cycles
system.l2.ReadExReq_mshr_miss_latency::total    392866500                       # number of ReadExReq MSHR miss cycles
system.l2.ReadCleanReq_mshr_miss_latency::cpu.inst    146057000                       # number of ReadCleanReq MSHR miss cycles
system.l2.ReadCleanReq_mshr_miss_latency::total    146057000                       # number of ReadCleanReq MSHR miss cycles
system.l2.ReadSharedReq_mshr_miss_latency::cpu.data     97763000                       # number of ReadSharedReq MSHR miss cycles
system.l2.ReadSharedReq_mshr_miss_latency::total     97763000                       # number of ReadSharedReq MSHR miss cycles
system.l2.demand_mshr_miss_latency::cpu.inst    146057000                       # number of demand (read+write) MSHR miss cycles
system.l2.demand_mshr_miss_latency::cpu.data    490629500                       # number of demand (read+write) MSHR miss cycles
system.l2.demand_mshr_miss_latency::total    636686500                       # number of demand (read+write) MSHR miss cycles
system.l2.overall_mshr_miss_latency::cpu.inst    146057000                       # number of overall MSHR miss cycles
system.l2.overall_mshr_miss_latency::cpu.data    490629500                       # number of overall MSHR miss cycles
system.l2.overall_mshr_miss_latency::total    636686500                       # number of overall MSHR miss cycles
system.l2.ReadExReq_mshr_miss_rate::cpu.data     0.081334                       # mshr miss rate for ReadExReq accesses
system.l2.ReadExReq_mshr_miss_rate::total     0.081334                       # mshr miss rate for ReadExReq accesses
system.l2.ReadCleanReq_mshr_miss_rate::cpu.inst     0.994721                       # mshr miss rate for ReadCleanReq accesses
system.l2.ReadCleanReq_mshr_miss_rate::total     0.994721                       # mshr miss rate for ReadCleanReq accesses
system.l2.ReadSharedReq_mshr_miss_rate::cpu.data     0.059065                       # mshr miss rate for ReadSharedReq accesses
system.l2.ReadSharedReq_mshr_miss_rate::total     0.059065                       # mshr miss rate for ReadSharedReq accesses
system.l2.demand_mshr_miss_rate::cpu.inst     0.994721                       # mshr miss rate for demand accesses
system.l2.demand_mshr_miss_rate::cpu.data     0.075535                       # mshr miss rate for demand accesses
system.l2.demand_mshr_miss_rate::total       0.096748                       # mshr miss rate for demand accesses
system.l2.overall_mshr_miss_rate::cpu.inst     0.994721                       # mshr miss rate for overall accesses
system.l2.overall_mshr_miss_rate::cpu.data     0.075535                       # mshr miss rate for overall accesses
system.l2.overall_mshr_miss_rate::total      0.096748                       # mshr miss rate for overall accesses
system.l2.ReadExReq_avg_mshr_miss_latency::cpu.data 67876.036628                       # average ReadExReq mshr miss latency
system.l2.ReadExReq_avg_mshr_miss_latency::total 67876.036628                       # average ReadExReq mshr miss latency
system.l2.ReadCleanReq_avg_mshr_miss_latency::cpu.inst 64598.407784                       # average ReadCleanReq mshr miss latency
system.l2.ReadCleanReq_avg_mshr_miss_latency::total 64598.407784                       # average ReadCleanReq mshr miss latency
system.l2.ReadSharedReq_avg_mshr_miss_latency::cpu.data 66056.081081                       # average ReadSharedReq mshr miss latency
system.l2.ReadSharedReq_avg_mshr_miss_latency::total 66056.081081                       # average ReadSharedReq mshr miss latency
system.l2.demand_avg_mshr_miss_latency::cpu.inst 64598.407784                       # average overall mshr miss latency
system.l2.demand_avg_mshr_miss_latency::cpu.data 67505.434783                       # average overall mshr miss latency
system.l2.demand_avg_mshr_miss_latency::total 66815.667961                       # average overall mshr miss latency
system.l2.overall_avg_mshr_miss_latency::cpu.inst 64598.407784                       # average overall mshr miss latency
system.l2.overall_avg_mshr_miss_latency::cpu.data 67505.434783                       # average overall mshr miss latency
system.l2.overall_avg_mshr_miss_latency::total 66815.667961                       # average overall mshr miss latency
system.l2.no_allocate_misses                        0                       # Number of misses that were no-allocate
system.membus.trans_dist::ReadResp               3741                       # Transaction distribution
system.membus.trans_dist::ReadExReq              5788                       # Transaction distribution
system.membus.trans_dist::ReadExResp             5788                       # Transaction distribution
system.membus.trans_dist::ReadSharedReq          3741                       # Transaction distribution
system.membus.pkt_count_system.l2.mem_side::system.mem_ctrls.port        19058                       # Packet count per connected master and slave (bytes)
system.membus.pkt_count_system.l2.mem_side::total        19058                       # Packet count per connected master and slave (bytes)
system.membus.pkt_count::total                  19058                       # Packet count per connected master and slave (bytes)
system.membus.pkt_size_system.l2.mem_side::system.mem_ctrls.port       304928                       # Cumulative packet size per connected master and slave (bytes)
system.membus.pkt_size_system.l2.mem_side::total       304928                       # Cumulative packet size per connected master and slave (bytes)
system.membus.pkt_size::total                  304928                       # Cumulative packet size per connected master and slave (bytes)
system.membus.snoops                                0                       # Total snoops (count)
system.membus.snoop_fanout::samples              9529                       # Request fanout histogram
system.membus.snoop_fanout::mean                    0                       # Request fanout histogram
system.membus.snoop_fanout::stdev                   0                       # Request fanout histogram
system.membus.snoop_fanout::underflows              0      0.00%      0.00% # Request fanout histogram
system.membus.snoop_fanout::0                    9529    100.00%    100.00% # Request fanout histogram
system.membus.snoop_fanout::1                       0      0.00%    100.00% # Request fanout histogram
system.membus.snoop_fanout::overflows               0      0.00%    100.00% # Request fanout histogram
system.membus.snoop_fanout::min_value               0                       # Request fanout histogram
system.membus.snoop_fanout::max_value               0                       # Request fanout histogram
system.membus.snoop_fanout::total                9529                       # Request fanout histogram
system.membus.reqLayer2.occupancy             9646000                       # Layer occupancy (ticks)
system.membus.reqLayer2.utilization               0.0                       # Layer utilization (%)
system.membus.respLayer1.occupancy           31677000                       # Layer occupancy (ticks)
system.membus.respLayer1.utilization              0.0                       # Layer utilization (%)
system.tol2bus.snoop_filter.tot_requests       192879                       # Total number of requests made to the snoop filter.
system.tol2bus.snoop_filter.hit_single_requests        94386                       # Number of requests hitting in the snoop filter with a single holder of the requested data.
system.tol2bus.snoop_filter.hit_multi_requests            0                       # Number of requests hitting in the snoop filter with multiple (>1) holders of the requested data.
system.tol2bus.snoop_filter.tot_snoops              0                       # Total number of snoops made to the snoop filter.
system.tol2bus.snoop_filter.hit_single_snoops            0                       # Number of snoops hitting in the snoop filter with a single holder of the requested data.
system.tol2bus.snoop_filter.hit_multi_snoops            0                       # Number of snoops hitting in the snoop filter with multiple (>1) holders of the requested data.
system.tol2bus.trans_dist::ReadResp             27330                       # Transaction distribution
system.tol2bus.trans_dist::WritebackDirty        92549                       # Transaction distribution
system.tol2bus.trans_dist::WritebackClean          214                       # Transaction distribution
system.tol2bus.trans_dist::CleanEvict            1623                       # Transaction distribution
system.tol2bus.trans_dist::ReadExReq            71163                       # Transaction distribution
system.tol2bus.trans_dist::ReadExResp           71163                       # Transaction distribution
system.tol2bus.trans_dist::ReadCleanReq          2273                       # Transaction distribution
system.tol2bus.trans_dist::ReadSharedReq        25057                       # Transaction distribution
system.tol2bus.pkt_count_system.cpu.icache.mem_side::system.l2.cpu_side         4760                       # Packet count per connected master and slave (bytes)
system.tol2bus.pkt_count_system.cpu.dcache.mem_side::system.l2.cpu_side       286612                       # Packet count per connected master and slave (bytes)
system.tol2bus.pkt_count::total                291372                       # Packet count per connected master and slave (bytes)
system.tol2bus.pkt_size_system.cpu.icache.mem_side::system.l2.cpu_side        79584                       # Cumulative packet size per connected master and slave (bytes)
system.tol2bus.pkt_size_system.cpu.dcache.mem_side::system.l2.cpu_side      6040608                       # Cumulative packet size per connected master and slave (bytes)
system.tol2bus.pkt_size::total                6120192                       # Cumulative packet size per connected master and slave (bytes)
system.tol2bus.snoops                               0                       # Total snoops (count)
system.tol2bus.snoop_fanout::samples            98493                       # Request fanout histogram
system.tol2bus.snoop_fanout::mean                   0                       # Request fanout histogram
system.tol2bus.snoop_fanout::stdev                  0                       # Request fanout histogram
system.tol2bus.snoop_fanout::underflows             0      0.00%      0.00% # Request fanout histogram
system.tol2bus.snoop_fanout::0                  98493    100.00%    100.00% # Request fanout histogram
system.tol2bus.snoop_fanout::1                      0      0.00%    100.00% # Request fanout histogram
system.tol2bus.snoop_fanout::2                      0      0.00%    100.00% # Request fanout histogram
system.tol2bus.snoop_fanout::3                      0      0.00%    100.00% # Request fanout histogram
system.tol2bus.snoop_fanout::4                      0      0.00%    100.00% # Request fanout histogram
system.tol2bus.snoop_fanout::overflows              0      0.00%    100.00% # Request fanout histogram
system.tol2bus.snoop_fanout::min_value              0                       # Request fanout histogram
system.tol2bus.snoop_fanout::max_value              0                       # Request fanout histogram
system.tol2bus.snoop_fanout::total              98493                       # Request fanout histogram
system.tol2bus.reqLayer0.occupancy          142821000                       # Layer occupancy (ticks)
system.tol2bus.reqLayer0.utilization              0.1                       # Layer utilization (%)
system.tol2bus.respLayer0.occupancy           2273000                       # Layer occupancy (ticks)
system.tol2bus.respLayer0.utilization             0.0                       # Layer utilization (%)
system.tol2bus.respLayer1.occupancy          96220000                       # Layer occupancy (ticks)
system.tol2bus.respLayer1.utilization             0.1                       # Layer utilization (%)

---------- End Simulation Statistics   ----------
