
---------- Begin Simulation Statistics ----------
sim_seconds                                  0.095582                       # Number of seconds simulated
sim_ticks                                 95581991500                       # Number of ticks simulated
final_tick                                95581991500                       # Number of ticks from beginning of simulation (restored from checkpoints and never reset)
sim_freq                                 1000000000000                       # Frequency of simulated ticks
host_inst_rate                                 523476                       # Simulator instruction rate (inst/s)
host_op_rate                                   680670                       # Simulator op (including micro ops) rate (op/s)
host_tick_rate                             1000696684                       # Simulator tick rate (ticks/s)
host_mem_usage                                 846836                       # Number of bytes of host memory used
host_seconds                                    95.52                       # Real time elapsed on the host
sim_insts                                    50000001                       # Number of instructions simulated
sim_ops                                      65014465                       # Number of ops (including micro ops) simulated
system.voltage_domain.voltage                       1                       # Voltage in Volts
system.clk_domain.clock                          1000                       # Clock period in ticks
system.mem_ctrls.bytes_read::cpu.inst           84288                       # Number of bytes read from this memory
system.mem_ctrls.bytes_read::cpu.data          240960                       # Number of bytes read from this memory
system.mem_ctrls.bytes_read::total             325248                       # Number of bytes read from this memory
system.mem_ctrls.bytes_inst_read::cpu.inst        84288                       # Number of instructions bytes read from this memory
system.mem_ctrls.bytes_inst_read::total         84288                       # Number of instructions bytes read from this memory
system.mem_ctrls.num_reads::cpu.inst             1317                       # Number of read requests responded to by this memory
system.mem_ctrls.num_reads::cpu.data             3765                       # Number of read requests responded to by this memory
system.mem_ctrls.num_reads::total                5082                       # Number of read requests responded to by this memory
system.mem_ctrls.bw_read::cpu.inst             881840                       # Total read bandwidth from this memory (bytes/s)
system.mem_ctrls.bw_read::cpu.data            2520977                       # Total read bandwidth from this memory (bytes/s)
system.mem_ctrls.bw_read::total               3402817                       # Total read bandwidth from this memory (bytes/s)
system.mem_ctrls.bw_inst_read::cpu.inst        881840                       # Instruction read bandwidth from this memory (bytes/s)
system.mem_ctrls.bw_inst_read::total           881840                       # Instruction read bandwidth from this memory (bytes/s)
system.mem_ctrls.bw_total::cpu.inst            881840                       # Total bandwidth to/from this memory (bytes/s)
system.mem_ctrls.bw_total::cpu.data           2520977                       # Total bandwidth to/from this memory (bytes/s)
system.mem_ctrls.bw_total::total              3402817                       # Total bandwidth to/from this memory (bytes/s)
system.mem_ctrls.readReqs                        5082                       # Number of read requests accepted
system.mem_ctrls.writeReqs                          0                       # Number of write requests accepted
system.mem_ctrls.readBursts                      5082                       # Number of DRAM read bursts, including those serviced by the write queue
system.mem_ctrls.writeBursts                        0                       # Number of DRAM write bursts, including those merged in the write queue
system.mem_ctrls.bytesReadDRAM                 325248                       # Total number of bytes read from DRAM
system.mem_ctrls.bytesReadWrQ                       0                       # Total number of bytes read from write queue
system.mem_ctrls.bytesWritten                       0                       # Total number of bytes written to DRAM
system.mem_ctrls.bytesReadSys                  325248                       # Total read bytes from the system interface side
system.mem_ctrls.bytesWrittenSys                    0                       # Total written bytes from the system interface side
system.mem_ctrls.servicedByWrQ                      0                       # Number of DRAM read bursts serviced by the write queue
system.mem_ctrls.mergedWrBursts                     0                       # Number of DRAM write bursts merged with an existing one
system.mem_ctrls.neitherReadNorWriteReqs            0                       # Number of requests that are neither read nor write
system.mem_ctrls.perBankRdBursts::0               263                       # Per bank write bursts
system.mem_ctrls.perBankRdBursts::1               218                       # Per bank write bursts
system.mem_ctrls.perBankRdBursts::2               304                       # Per bank write bursts
system.mem_ctrls.perBankRdBursts::3               190                       # Per bank write bursts
system.mem_ctrls.perBankRdBursts::4               342                       # Per bank write bursts
system.mem_ctrls.perBankRdBursts::5               277                       # Per bank write bursts
system.mem_ctrls.perBankRdBursts::6               214                       # Per bank write bursts
system.mem_ctrls.perBankRdBursts::7               283                       # Per bank write bursts
system.mem_ctrls.perBankRdBursts::8               380                       # Per bank write bursts
system.mem_ctrls.perBankRdBursts::9               390                       # Per bank write bursts
system.mem_ctrls.perBankRdBursts::10              445                       # Per bank write bursts
system.mem_ctrls.perBankRdBursts::11              463                       # Per bank write bursts
system.mem_ctrls.perBankRdBursts::12              365                       # Per bank write bursts
system.mem_ctrls.perBankRdBursts::13              320                       # Per bank write bursts
system.mem_ctrls.perBankRdBursts::14              303                       # Per bank write bursts
system.mem_ctrls.perBankRdBursts::15              325                       # Per bank write bursts
system.mem_ctrls.perBankWrBursts::0                 0                       # Per bank write bursts
system.mem_ctrls.perBankWrBursts::1                 0                       # Per bank write bursts
system.mem_ctrls.perBankWrBursts::2                 0                       # Per bank write bursts
system.mem_ctrls.perBankWrBursts::3                 0                       # Per bank write bursts
system.mem_ctrls.perBankWrBursts::4                 0                       # Per bank write bursts
system.mem_ctrls.perBankWrBursts::5                 0                       # Per bank write bursts
system.mem_ctrls.perBankWrBursts::6                 0                       # Per bank write bursts
system.mem_ctrls.perBankWrBursts::7                 0                       # Per bank write bursts
system.mem_ctrls.perBankWrBursts::8                 0                       # Per bank write bursts
system.mem_ctrls.perBankWrBursts::9                 0                       # Per bank write bursts
system.mem_ctrls.perBankWrBursts::10                0                       # Per bank write bursts
system.mem_ctrls.perBankWrBursts::11                0                       # Per bank write bursts
system.mem_ctrls.perBankWrBursts::12                0                       # Per bank write bursts
system.mem_ctrls.perBankWrBursts::13                0                       # Per bank write bursts
system.mem_ctrls.perBankWrBursts::14                0                       # Per bank write bursts
system.mem_ctrls.perBankWrBursts::15                0                       # Per bank write bursts
system.mem_ctrls.numRdRetry                         0                       # Number of times read queue was full causing retry
system.mem_ctrls.numWrRetry                         0                       # Number of times write queue was full causing retry
system.mem_ctrls.totGap                   92955936500                       # Total gap between requests
system.mem_ctrls.readPktSize::0                     0                       # Read request sizes (log2)
system.mem_ctrls.readPktSize::1                     0                       # Read request sizes (log2)
system.mem_ctrls.readPktSize::2                     0                       # Read request sizes (log2)
system.mem_ctrls.readPktSize::3                     0                       # Read request sizes (log2)
system.mem_ctrls.readPktSize::4                     0                       # Read request sizes (log2)
system.mem_ctrls.readPktSize::5                     0                       # Read request sizes (log2)
system.mem_ctrls.readPktSize::6                  5082                       # Read request sizes (log2)
system.mem_ctrls.writePktSize::0                    0                       # Write request sizes (log2)
system.mem_ctrls.writePktSize::1                    0                       # Write request sizes (log2)
system.mem_ctrls.writePktSize::2                    0                       # Write request sizes (log2)
system.mem_ctrls.writePktSize::3                    0                       # Write request sizes (log2)
system.mem_ctrls.writePktSize::4                    0                       # Write request sizes (log2)
system.mem_ctrls.writePktSize::5                    0                       # Write request sizes (log2)
system.mem_ctrls.writePktSize::6                    0                       # Write request sizes (log2)
system.mem_ctrls.rdQLenPdf::0                    4902                       # What read queue length does an incoming req see
system.mem_ctrls.rdQLenPdf::1                     167                       # What read queue length does an incoming req see
system.mem_ctrls.rdQLenPdf::2                      13                       # What read queue length does an incoming req see
system.mem_ctrls.rdQLenPdf::3                       0                       # What read queue length does an incoming req see
system.mem_ctrls.rdQLenPdf::4                       0                       # What read queue length does an incoming req see
system.mem_ctrls.rdQLenPdf::5                       0                       # What read queue length does an incoming req see
system.mem_ctrls.rdQLenPdf::6                       0                       # What read queue length does an incoming req see
system.mem_ctrls.rdQLenPdf::7                       0                       # What read queue length does an incoming req see
system.mem_ctrls.rdQLenPdf::8                       0                       # What read queue length does an incoming req see
system.mem_ctrls.rdQLenPdf::9                       0                       # What read queue length does an incoming req see
system.mem_ctrls.rdQLenPdf::10                      0                       # What read queue length does an incoming req see
system.mem_ctrls.rdQLenPdf::11                      0                       # What read queue length does an incoming req see
system.mem_ctrls.rdQLenPdf::12                      0                       # What read queue length does an incoming req see
system.mem_ctrls.rdQLenPdf::13                      0                       # What read queue length does an incoming req see
system.mem_ctrls.rdQLenPdf::14                      0                       # What read queue length does an incoming req see
system.mem_ctrls.rdQLenPdf::15                      0                       # What read queue length does an incoming req see
system.mem_ctrls.rdQLenPdf::16                      0                       # What read queue length does an incoming req see
system.mem_ctrls.rdQLenPdf::17                      0                       # What read queue length does an incoming req see
system.mem_ctrls.rdQLenPdf::18                      0                       # What read queue length does an incoming req see
system.mem_ctrls.rdQLenPdf::19                      0                       # What read queue length does an incoming req see
system.mem_ctrls.rdQLenPdf::20                      0                       # What read queue length does an incoming req see
system.mem_ctrls.rdQLenPdf::21                      0                       # What read queue length does an incoming req see
system.mem_ctrls.rdQLenPdf::22                      0                       # What read queue length does an incoming req see
system.mem_ctrls.rdQLenPdf::23                      0                       # What read queue length does an incoming req see
system.mem_ctrls.rdQLenPdf::24                      0                       # What read queue length does an incoming req see
system.mem_ctrls.rdQLenPdf::25                      0                       # What read queue length does an incoming req see
system.mem_ctrls.rdQLenPdf::26                      0                       # What read queue length does an incoming req see
system.mem_ctrls.rdQLenPdf::27                      0                       # What read queue length does an incoming req see
system.mem_ctrls.rdQLenPdf::28                      0                       # What read queue length does an incoming req see
system.mem_ctrls.rdQLenPdf::29                      0                       # What read queue length does an incoming req see
system.mem_ctrls.rdQLenPdf::30                      0                       # What read queue length does an incoming req see
system.mem_ctrls.rdQLenPdf::31                      0                       # What read queue length does an incoming req see
system.mem_ctrls.wrQLenPdf::0                       0                       # What write queue length does an incoming req see
system.mem_ctrls.wrQLenPdf::1                       0                       # What write queue length does an incoming req see
system.mem_ctrls.wrQLenPdf::2                       0                       # What write queue length does an incoming req see
system.mem_ctrls.wrQLenPdf::3                       0                       # What write queue length does an incoming req see
system.mem_ctrls.wrQLenPdf::4                       0                       # What write queue length does an incoming req see
system.mem_ctrls.wrQLenPdf::5                       0                       # What write queue length does an incoming req see
system.mem_ctrls.wrQLenPdf::6                       0                       # What write queue length does an incoming req see
system.mem_ctrls.wrQLenPdf::7                       0                       # What write queue length does an incoming req see
system.mem_ctrls.wrQLenPdf::8                       0                       # What write queue length does an incoming req see
system.mem_ctrls.wrQLenPdf::9                       0                       # What write queue length does an incoming req see
system.mem_ctrls.wrQLenPdf::10                      0                       # What write queue length does an incoming req see
system.mem_ctrls.wrQLenPdf::11                      0                       # What write queue length does an incoming req see
system.mem_ctrls.wrQLenPdf::12                      0                       # What write queue length does an incoming req see
system.mem_ctrls.wrQLenPdf::13                      0                       # What write queue length does an incoming req see
system.mem_ctrls.wrQLenPdf::14                      0                       # What write queue length does an incoming req see
system.mem_ctrls.wrQLenPdf::15                      0                       # What write queue length does an incoming req see
system.mem_ctrls.wrQLenPdf::16                      0                       # What write queue length does an incoming req see
system.mem_ctrls.wrQLenPdf::17                      0                       # What write queue length does an incoming req see
system.mem_ctrls.wrQLenPdf::18                      0                       # What write queue length does an incoming req see
system.mem_ctrls.wrQLenPdf::19                      0                       # What write queue length does an incoming req see
system.mem_ctrls.wrQLenPdf::20                      0                       # What write queue length does an incoming req see
system.mem_ctrls.wrQLenPdf::21                      0                       # What write queue length does an incoming req see
system.mem_ctrls.wrQLenPdf::22                      0                       # What write queue length does an incoming req see
system.mem_ctrls.wrQLenPdf::23                      0                       # What write queue length does an incoming req see
system.mem_ctrls.wrQLenPdf::24                      0                       # What write queue length does an incoming req see
system.mem_ctrls.wrQLenPdf::25                      0                       # What write queue length does an incoming req see
system.mem_ctrls.wrQLenPdf::26                      0                       # What write queue length does an incoming req see
system.mem_ctrls.wrQLenPdf::27                      0                       # What write queue length does an incoming req see
system.mem_ctrls.wrQLenPdf::28                      0                       # What write queue length does an incoming req see
system.mem_ctrls.wrQLenPdf::29                      0                       # What write queue length does an incoming req see
system.mem_ctrls.wrQLenPdf::30                      0                       # What write queue length does an incoming req see
system.mem_ctrls.wrQLenPdf::31                      0                       # What write queue length does an incoming req see
system.mem_ctrls.wrQLenPdf::32                      0                       # What write queue length does an incoming req see
system.mem_ctrls.wrQLenPdf::33                      0                       # What write queue length does an incoming req see
system.mem_ctrls.wrQLenPdf::34                      0                       # What write queue length does an incoming req see
system.mem_ctrls.wrQLenPdf::35                      0                       # What write queue length does an incoming req see
system.mem_ctrls.wrQLenPdf::36                      0                       # What write queue length does an incoming req see
system.mem_ctrls.wrQLenPdf::37                      0                       # What write queue length does an incoming req see
system.mem_ctrls.wrQLenPdf::38                      0                       # What write queue length does an incoming req see
system.mem_ctrls.wrQLenPdf::39                      0                       # What write queue length does an incoming req see
system.mem_ctrls.wrQLenPdf::40                      0                       # What write queue length does an incoming req see
system.mem_ctrls.wrQLenPdf::41                      0                       # What write queue length does an incoming req see
system.mem_ctrls.wrQLenPdf::42                      0                       # What write queue length does an incoming req see
system.mem_ctrls.wrQLenPdf::43                      0                       # What write queue length does an incoming req see
system.mem_ctrls.wrQLenPdf::44                      0                       # What write queue length does an incoming req see
system.mem_ctrls.wrQLenPdf::45                      0                       # What write queue length does an incoming req see
system.mem_ctrls.wrQLenPdf::46                      0                       # What write queue length does an incoming req see
system.mem_ctrls.wrQLenPdf::47                      0                       # What write queue length does an incoming req see
system.mem_ctrls.wrQLenPdf::48                      0                       # What write queue length does an incoming req see
system.mem_ctrls.wrQLenPdf::49                      0                       # What write queue length does an incoming req see
system.mem_ctrls.wrQLenPdf::50                      0                       # What write queue length does an incoming req see
system.mem_ctrls.wrQLenPdf::51                      0                       # What write queue length does an incoming req see
system.mem_ctrls.wrQLenPdf::52                      0                       # What write queue length does an incoming req see
system.mem_ctrls.wrQLenPdf::53                      0                       # What write queue length does an incoming req see
system.mem_ctrls.wrQLenPdf::54                      0                       # What write queue length does an incoming req see
system.mem_ctrls.wrQLenPdf::55                      0                       # What write queue length does an incoming req see
system.mem_ctrls.wrQLenPdf::56                      0                       # What write queue length does an incoming req see
system.mem_ctrls.wrQLenPdf::57                      0                       # What write queue length does an incoming req see
system.mem_ctrls.wrQLenPdf::58                      0                       # What write queue length does an incoming req see
system.mem_ctrls.wrQLenPdf::59                      0                       # What write queue length does an incoming req see
system.mem_ctrls.wrQLenPdf::60                      0                       # What write queue length does an incoming req see
system.mem_ctrls.wrQLenPdf::61                      0                       # What write queue length does an incoming req see
system.mem_ctrls.wrQLenPdf::62                      0                       # What write queue length does an incoming req see
system.mem_ctrls.wrQLenPdf::63                      0                       # What write queue length does an incoming req see
system.mem_ctrls.bytesPerActivate::samples         2167                       # Bytes accessed per row activation
system.mem_ctrls.bytesPerActivate::mean    150.091371                       # Bytes accessed per row activation
system.mem_ctrls.bytesPerActivate::gmean    94.398641                       # Bytes accessed per row activation
system.mem_ctrls.bytesPerActivate::stdev   219.403819                       # Bytes accessed per row activation
system.mem_ctrls.bytesPerActivate::0-127         1630     75.22%     75.22% # Bytes accessed per row activation
system.mem_ctrls.bytesPerActivate::128-255          229     10.57%     85.79% # Bytes accessed per row activation
system.mem_ctrls.bytesPerActivate::256-383           89      4.11%     89.89% # Bytes accessed per row activation
system.mem_ctrls.bytesPerActivate::384-511           57      2.63%     92.52% # Bytes accessed per row activation
system.mem_ctrls.bytesPerActivate::512-639           36      1.66%     94.19% # Bytes accessed per row activation
system.mem_ctrls.bytesPerActivate::640-767           14      0.65%     94.83% # Bytes accessed per row activation
system.mem_ctrls.bytesPerActivate::768-895           21      0.97%     95.80% # Bytes accessed per row activation
system.mem_ctrls.bytesPerActivate::896-1023            8      0.37%     96.17% # Bytes accessed per row activation
system.mem_ctrls.bytesPerActivate::1024-1151           83      3.83%    100.00% # Bytes accessed per row activation
system.mem_ctrls.bytesPerActivate::total         2167                       # Bytes accessed per row activation
system.mem_ctrls.totQLat                     56765000                       # Total ticks spent queuing
system.mem_ctrls.totMemAccLat               152052500                       # Total ticks spent from burst creation until serviced by the DRAM
system.mem_ctrls.totBusLat                   25410000                       # Total ticks spent in databus transfers
system.mem_ctrls.avgQLat                     11169.82                       # Average queueing delay per DRAM burst
system.mem_ctrls.avgBusLat                    5000.00                       # Average bus latency per DRAM burst
system.mem_ctrls.avgMemAccLat                29919.82                       # Average memory access latency per DRAM burst
system.mem_ctrls.avgRdBW                         3.40                       # Average DRAM read bandwidth in MiByte/s
system.mem_ctrls.avgWrBW                         0.00                       # Average achieved write bandwidth in MiByte/s
system.mem_ctrls.avgRdBWSys                      3.40                       # Average system read bandwidth in MiByte/s
system.mem_ctrls.avgWrBWSys                      0.00                       # Average system write bandwidth in MiByte/s
system.mem_ctrls.peakBW                      12800.00                       # Theoretical peak bandwidth in MiByte/s
system.mem_ctrls.busUtil                         0.03                       # Data bus utilization in percentage
system.mem_ctrls.busUtilRead                     0.03                       # Data bus utilization in percentage for reads
system.mem_ctrls.busUtilWrite                    0.00                       # Data bus utilization in percentage for writes
system.mem_ctrls.avgRdQLen                       1.03                       # Average read queue length when enqueuing
system.mem_ctrls.avgWrQLen                       0.00                       # Average write queue length when enqueuing
system.mem_ctrls.readRowHits                     2915                       # Number of row buffer hits during reads
system.mem_ctrls.writeRowHits                       0                       # Number of row buffer hits during writes
system.mem_ctrls.readRowHitRate                 57.36                       # Row buffer hit rate for reads
system.mem_ctrls.writeRowHitRate                  nan                       # Row buffer hit rate for writes
system.mem_ctrls.avgGap                   18291211.43                       # Average gap between requests
system.mem_ctrls.pageHitRate                    57.36                       # Row buffer hit rate, read and write combined
system.mem_ctrls_0.actEnergy                  7801920                       # Energy for activate commands per rank (pJ)
system.mem_ctrls_0.preEnergy                  4257000                       # Energy for precharge commands per rank (pJ)
system.mem_ctrls_0.readEnergy                16309800                       # Energy for read commands per rank (pJ)
system.mem_ctrls_0.writeEnergy                      0                       # Energy for write commands per rank (pJ)
system.mem_ctrls_0.refreshEnergy           6242574000                       # Energy for refresh commands per rank (pJ)
system.mem_ctrls_0.actBackEnergy           3965488290                       # Energy for active background per rank (pJ)
system.mem_ctrls_0.preBackEnergy          53867380500                       # Energy for precharge background per rank (pJ)
system.mem_ctrls_0.totalEnergy            64103811510                       # Total energy per rank (pJ)
system.mem_ctrls_0.averagePower            670.707077                       # Core power per rank (mW)
system.mem_ctrls_0.memoryStateTime::IDLE  89602112750                       # Time in different power states
system.mem_ctrls_0.memoryStateTime::REF    3191500000                       # Time in different power states
system.mem_ctrls_0.memoryStateTime::PRE_PDN            0                       # Time in different power states
system.mem_ctrls_0.memoryStateTime::ACT    2782866000                       # Time in different power states
system.mem_ctrls_0.memoryStateTime::ACT_PDN            0                       # Time in different power states
system.mem_ctrls_1.actEnergy                  8580600                       # Energy for activate commands per rank (pJ)
system.mem_ctrls_1.preEnergy                  4681875                       # Energy for precharge commands per rank (pJ)
system.mem_ctrls_1.readEnergy                23329800                       # Energy for read commands per rank (pJ)
system.mem_ctrls_1.writeEnergy                      0                       # Energy for write commands per rank (pJ)
system.mem_ctrls_1.refreshEnergy           6242574000                       # Energy for refresh commands per rank (pJ)
system.mem_ctrls_1.actBackEnergy           4061503080                       # Energy for active background per rank (pJ)
system.mem_ctrls_1.preBackEnergy          53783157000                       # Energy for precharge background per rank (pJ)
system.mem_ctrls_1.totalEnergy            64123826355                       # Total energy per rank (pJ)
system.mem_ctrls_1.averagePower            670.916489                       # Core power per rank (mW)
system.mem_ctrls_1.memoryStateTime::IDLE  89461690750                       # Time in different power states
system.mem_ctrls_1.memoryStateTime::REF    3191500000                       # Time in different power states
system.mem_ctrls_1.memoryStateTime::PRE_PDN            0                       # Time in different power states
system.mem_ctrls_1.memoryStateTime::ACT    2923288000                       # Time in different power states
system.mem_ctrls_1.memoryStateTime::ACT_PDN            0                       # Time in different power states
system.cpu.branchPred.lookups                 2859327                       # Number of BP lookups
system.cpu.branchPred.condPredicted           2859327                       # Number of conditional branches predicted
system.cpu.branchPred.condIncorrect            273192                       # Number of conditional branches incorrect
system.cpu.branchPred.BTBLookups              2055348                       # Number of BTB lookups
system.cpu.branchPred.BTBHits                 2033332                       # Number of BTB hits
system.cpu.branchPred.BTBCorrect                    0                       # Number of correct BTB predictions (this stat may not work properly.
system.cpu.branchPred.BTBHitPct             98.928843                       # BTB Hit Percentage
system.cpu.branchPred.BTBMissPct             1.071157                       # BTB Miss Percentage
system.cpu.branchPred.usedRAS                   82194                       # Number of times the RAS was used to get a target.
system.cpu.branchPred.RASInCorrect                827                       # Number of incorrect RAS predictions.
system.cpu_voltage_domain.voltage                   1                       # Voltage in Volts
system.cpu_clk_domain.clock                       500                       # Clock period in ticks
system.cpu.apic_clk_domain.clock                 8000                       # Clock period in ticks
system.cpu.workload.num_syscalls                   34                       # Number of system calls
system.cpu.numCycles                        191163983                       # number of cpu cycles simulated
system.cpu.numWorkItemsStarted                      0                       # number of work items this cpu started
system.cpu.numWorkItemsCompleted                    0                       # number of work items this cpu completed
system.cpu.committedInsts                    50000001                       # Number of instructions committed
system.cpu.committedOps                      65014465                       # Number of ops (including micro ops) committed
system.cpu.num_int_alu_accesses              62933457                       # Number of integer alu accesses
system.cpu.num_fp_alu_accesses                2948954                       # Number of float alu accesses
system.cpu.num_func_calls                      164791                       # number of times a function call or return occured
system.cpu.num_conditional_control_insts      2606507                       # number of instructions that are conditional controls
system.cpu.num_int_insts                     62933457                       # number of integer instructions
system.cpu.num_fp_insts                       2948954                       # number of float instructions
system.cpu.num_int_register_reads           147292995                       # number of times the integer registers were read
system.cpu.num_int_register_writes           57136355                       # number of times the integer registers were written
system.cpu.num_fp_register_reads              2505840                       # number of times the floating registers were read
system.cpu.num_fp_register_writes             2527243                       # number of times the floating registers were written
system.cpu.num_cc_register_reads             19215973                       # number of times the CC registers were read
system.cpu.num_cc_register_writes            26132447                       # number of times the CC registers were written
system.cpu.num_mem_refs                      25502514                       # number of memory refs
system.cpu.num_load_insts                    21863457                       # Number of load instructions
system.cpu.num_store_insts                    3639057                       # Number of store instructions
system.cpu.num_idle_cycles                          0                       # Number of idle cycles
system.cpu.num_busy_cycles                  191163983                       # Number of busy cycles
system.cpu.not_idle_fraction                        1                       # Percentage of non-idle cycles
system.cpu.idle_fraction                            0                       # Percentage of idle cycles
system.cpu.Branches                           2859327                       # Number of branches fetched
system.cpu.predictedBranches                  2115526                       # Number of branches predicted as taken
system.cpu.BranchMispred                       273192                       # Number of branch mispredictions
system.cpu.numBranchMispreadPercent          9.554416                       # Number of Branch Mispread Percent
system.cpu.op_class::No_OpClass                195747      0.30%      0.30% # Class of executed instruction
system.cpu.op_class::IntAlu                  36732834     56.50%     56.80% # Class of executed instruction
system.cpu.op_class::IntMult                    70748      0.11%     56.91% # Class of executed instruction
system.cpu.op_class::IntDiv                    629626      0.97%     57.88% # Class of executed instruction
system.cpu.op_class::FloatAdd                 1882996      2.90%     60.77% # Class of executed instruction
system.cpu.op_class::FloatCmp                       0      0.00%     60.77% # Class of executed instruction
system.cpu.op_class::FloatCvt                       0      0.00%     60.77% # Class of executed instruction
system.cpu.op_class::FloatMult                      0      0.00%     60.77% # Class of executed instruction
system.cpu.op_class::FloatDiv                       0      0.00%     60.77% # Class of executed instruction
system.cpu.op_class::FloatSqrt                      0      0.00%     60.77% # Class of executed instruction
system.cpu.op_class::SimdAdd                        0      0.00%     60.77% # Class of executed instruction
system.cpu.op_class::SimdAddAcc                     0      0.00%     60.77% # Class of executed instruction
system.cpu.op_class::SimdAlu                        0      0.00%     60.77% # Class of executed instruction
system.cpu.op_class::SimdCmp                        0      0.00%     60.77% # Class of executed instruction
system.cpu.op_class::SimdCvt                        0      0.00%     60.77% # Class of executed instruction
system.cpu.op_class::SimdMisc                       0      0.00%     60.77% # Class of executed instruction
system.cpu.op_class::SimdMult                       0      0.00%     60.77% # Class of executed instruction
system.cpu.op_class::SimdMultAcc                    0      0.00%     60.77% # Class of executed instruction
system.cpu.op_class::SimdShift                      0      0.00%     60.77% # Class of executed instruction
system.cpu.op_class::SimdShiftAcc                   0      0.00%     60.77% # Class of executed instruction
system.cpu.op_class::SimdSqrt                       0      0.00%     60.77% # Class of executed instruction
system.cpu.op_class::SimdFloatAdd                   0      0.00%     60.77% # Class of executed instruction
system.cpu.op_class::SimdFloatAlu                   0      0.00%     60.77% # Class of executed instruction
system.cpu.op_class::SimdFloatCmp                   0      0.00%     60.77% # Class of executed instruction
system.cpu.op_class::SimdFloatCvt                   0      0.00%     60.77% # Class of executed instruction
system.cpu.op_class::SimdFloatDiv                   0      0.00%     60.77% # Class of executed instruction
system.cpu.op_class::SimdFloatMisc                  0      0.00%     60.77% # Class of executed instruction
system.cpu.op_class::SimdFloatMult                  0      0.00%     60.77% # Class of executed instruction
system.cpu.op_class::SimdFloatMultAcc               0      0.00%     60.77% # Class of executed instruction
system.cpu.op_class::SimdFloatSqrt                  0      0.00%     60.77% # Class of executed instruction
system.cpu.op_class::MemRead                 21863457     33.63%     94.40% # Class of executed instruction
system.cpu.op_class::MemWrite                 3639057      5.60%    100.00% # Class of executed instruction
system.cpu.op_class::IprAccess                      0      0.00%    100.00% # Class of executed instruction
system.cpu.op_class::InstPrefetch                   0      0.00%    100.00% # Class of executed instruction
system.cpu.op_class::total                   65014465                       # Class of executed instruction
system.cpu.dcache.tags.replacements             12897                       # number of replacements
system.cpu.dcache.tags.tagsinuse          2013.510675                       # Cycle average of tags in use
system.cpu.dcache.tags.total_refs            25488562                       # Total number of references to valid blocks.
system.cpu.dcache.tags.sampled_refs             14945                       # Sample count of references to valid blocks.
system.cpu.dcache.tags.avg_refs           1705.490933                       # Average number of references to valid blocks.
system.cpu.dcache.tags.warmup_cycle        8316204500                       # Cycle when the warmup percentage was hit.
system.cpu.dcache.tags.occ_blocks::cpu.data  2013.510675                       # Average occupied blocks per requestor
system.cpu.dcache.tags.occ_percent::cpu.data     0.983160                       # Average percentage of cache occupancy
system.cpu.dcache.tags.occ_percent::total     0.983160                       # Average percentage of cache occupancy
system.cpu.dcache.tags.occ_task_id_blocks::1024         2048                       # Occupied blocks per task id
system.cpu.dcache.tags.age_task_id_blocks_1024::0            4                       # Occupied blocks per task id
system.cpu.dcache.tags.age_task_id_blocks_1024::1           11                       # Occupied blocks per task id
system.cpu.dcache.tags.age_task_id_blocks_1024::2           13                       # Occupied blocks per task id
system.cpu.dcache.tags.age_task_id_blocks_1024::3         1693                       # Occupied blocks per task id
system.cpu.dcache.tags.age_task_id_blocks_1024::4          327                       # Occupied blocks per task id
system.cpu.dcache.tags.occ_task_id_percent::1024            1                       # Percentage of cache occupancy per task id
system.cpu.dcache.tags.tag_accesses         102028973                       # Number of tag accesses
system.cpu.dcache.tags.data_accesses        102028973                       # Number of data accesses
system.cpu.dcache.ReadReq_hits::cpu.data     21858159                       # number of ReadReq hits
system.cpu.dcache.ReadReq_hits::total        21858159                       # number of ReadReq hits
system.cpu.dcache.WriteReq_hits::cpu.data      3628791                       # number of WriteReq hits
system.cpu.dcache.WriteReq_hits::total        3628791                       # number of WriteReq hits
system.cpu.dcache.SoftPFReq_hits::cpu.data         1612                       # number of SoftPFReq hits
system.cpu.dcache.SoftPFReq_hits::total          1612                       # number of SoftPFReq hits
system.cpu.dcache.demand_hits::cpu.data      25486950                       # number of demand (read+write) hits
system.cpu.dcache.demand_hits::total         25486950                       # number of demand (read+write) hits
system.cpu.dcache.overall_hits::cpu.data     25488562                       # number of overall hits
system.cpu.dcache.overall_hits::total        25488562                       # number of overall hits
system.cpu.dcache.ReadReq_misses::cpu.data         3295                       # number of ReadReq misses
system.cpu.dcache.ReadReq_misses::total          3295                       # number of ReadReq misses
system.cpu.dcache.WriteReq_misses::cpu.data        10316                       # number of WriteReq misses
system.cpu.dcache.WriteReq_misses::total        10316                       # number of WriteReq misses
system.cpu.dcache.SoftPFReq_misses::cpu.data         1334                       # number of SoftPFReq misses
system.cpu.dcache.SoftPFReq_misses::total         1334                       # number of SoftPFReq misses
system.cpu.dcache.demand_misses::cpu.data        13611                       # number of demand (read+write) misses
system.cpu.dcache.demand_misses::total          13611                       # number of demand (read+write) misses
system.cpu.dcache.overall_misses::cpu.data        14945                       # number of overall misses
system.cpu.dcache.overall_misses::total         14945                       # number of overall misses
system.cpu.dcache.ReadReq_miss_latency::cpu.data     85800000                       # number of ReadReq miss cycles
system.cpu.dcache.ReadReq_miss_latency::total     85800000                       # number of ReadReq miss cycles
system.cpu.dcache.WriteReq_miss_latency::cpu.data    336198000                       # number of WriteReq miss cycles
system.cpu.dcache.WriteReq_miss_latency::total    336198000                       # number of WriteReq miss cycles
system.cpu.dcache.demand_miss_latency::cpu.data    421998000                       # number of demand (read+write) miss cycles
system.cpu.dcache.demand_miss_latency::total    421998000                       # number of demand (read+write) miss cycles
system.cpu.dcache.overall_miss_latency::cpu.data    421998000                       # number of overall miss cycles
system.cpu.dcache.overall_miss_latency::total    421998000                       # number of overall miss cycles
system.cpu.dcache.ReadReq_accesses::cpu.data     21861454                       # number of ReadReq accesses(hits+misses)
system.cpu.dcache.ReadReq_accesses::total     21861454                       # number of ReadReq accesses(hits+misses)
system.cpu.dcache.WriteReq_accesses::cpu.data      3639107                       # number of WriteReq accesses(hits+misses)
system.cpu.dcache.WriteReq_accesses::total      3639107                       # number of WriteReq accesses(hits+misses)
system.cpu.dcache.SoftPFReq_accesses::cpu.data         2946                       # number of SoftPFReq accesses(hits+misses)
system.cpu.dcache.SoftPFReq_accesses::total         2946                       # number of SoftPFReq accesses(hits+misses)
system.cpu.dcache.demand_accesses::cpu.data     25500561                       # number of demand (read+write) accesses
system.cpu.dcache.demand_accesses::total     25500561                       # number of demand (read+write) accesses
system.cpu.dcache.overall_accesses::cpu.data     25503507                       # number of overall (read+write) accesses
system.cpu.dcache.overall_accesses::total     25503507                       # number of overall (read+write) accesses
system.cpu.dcache.ReadReq_miss_rate::cpu.data     0.000151                       # miss rate for ReadReq accesses
system.cpu.dcache.ReadReq_miss_rate::total     0.000151                       # miss rate for ReadReq accesses
system.cpu.dcache.WriteReq_miss_rate::cpu.data     0.002835                       # miss rate for WriteReq accesses
system.cpu.dcache.WriteReq_miss_rate::total     0.002835                       # miss rate for WriteReq accesses
system.cpu.dcache.SoftPFReq_miss_rate::cpu.data     0.452817                       # miss rate for SoftPFReq accesses
system.cpu.dcache.SoftPFReq_miss_rate::total     0.452817                       # miss rate for SoftPFReq accesses
system.cpu.dcache.demand_miss_rate::cpu.data     0.000534                       # miss rate for demand accesses
system.cpu.dcache.demand_miss_rate::total     0.000534                       # miss rate for demand accesses
system.cpu.dcache.overall_miss_rate::cpu.data     0.000586                       # miss rate for overall accesses
system.cpu.dcache.overall_miss_rate::total     0.000586                       # miss rate for overall accesses
system.cpu.dcache.ReadReq_avg_miss_latency::cpu.data 26039.453718                       # average ReadReq miss latency
system.cpu.dcache.ReadReq_avg_miss_latency::total 26039.453718                       # average ReadReq miss latency
system.cpu.dcache.WriteReq_avg_miss_latency::cpu.data 32589.957348                       # average WriteReq miss latency
system.cpu.dcache.WriteReq_avg_miss_latency::total 32589.957348                       # average WriteReq miss latency
system.cpu.dcache.demand_avg_miss_latency::cpu.data 31004.187789                       # average overall miss latency
system.cpu.dcache.demand_avg_miss_latency::total 31004.187789                       # average overall miss latency
system.cpu.dcache.overall_avg_miss_latency::cpu.data 28236.734694                       # average overall miss latency
system.cpu.dcache.overall_avg_miss_latency::total 28236.734694                       # average overall miss latency
system.cpu.dcache.blocked_cycles::no_mshrs         1093                       # number of cycles access was blocked
system.cpu.dcache.blocked_cycles::no_targets            0                       # number of cycles access was blocked
system.cpu.dcache.blocked::no_mshrs                43                       # number of cycles access was blocked
system.cpu.dcache.blocked::no_targets               0                       # number of cycles access was blocked
system.cpu.dcache.avg_blocked_cycles::no_mshrs    25.418605                       # average number of cycles each access was blocked
system.cpu.dcache.avg_blocked_cycles::no_targets          nan                       # average number of cycles each access was blocked
system.cpu.dcache.fast_writes                       0                       # number of fast writes performed
system.cpu.dcache.cache_copies                      0                       # number of cache copies performed
system.cpu.dcache.writebacks::writebacks        12087                       # number of writebacks
system.cpu.dcache.writebacks::total             12087                       # number of writebacks
system.cpu.dcache.ReadReq_mshr_misses::cpu.data         3295                       # number of ReadReq MSHR misses
system.cpu.dcache.ReadReq_mshr_misses::total         3295                       # number of ReadReq MSHR misses
system.cpu.dcache.WriteReq_mshr_misses::cpu.data        10316                       # number of WriteReq MSHR misses
system.cpu.dcache.WriteReq_mshr_misses::total        10316                       # number of WriteReq MSHR misses
system.cpu.dcache.SoftPFReq_mshr_misses::cpu.data         1334                       # number of SoftPFReq MSHR misses
system.cpu.dcache.SoftPFReq_mshr_misses::total         1334                       # number of SoftPFReq MSHR misses
system.cpu.dcache.demand_mshr_misses::cpu.data        13611                       # number of demand (read+write) MSHR misses
system.cpu.dcache.demand_mshr_misses::total        13611                       # number of demand (read+write) MSHR misses
system.cpu.dcache.overall_mshr_misses::cpu.data        14945                       # number of overall MSHR misses
system.cpu.dcache.overall_mshr_misses::total        14945                       # number of overall MSHR misses
system.cpu.dcache.ReadReq_mshr_miss_latency::cpu.data     82505000                       # number of ReadReq MSHR miss cycles
system.cpu.dcache.ReadReq_mshr_miss_latency::total     82505000                       # number of ReadReq MSHR miss cycles
system.cpu.dcache.WriteReq_mshr_miss_latency::cpu.data    325882000                       # number of WriteReq MSHR miss cycles
system.cpu.dcache.WriteReq_mshr_miss_latency::total    325882000                       # number of WriteReq MSHR miss cycles
system.cpu.dcache.SoftPFReq_mshr_miss_latency::cpu.data     36715000                       # number of SoftPFReq MSHR miss cycles
system.cpu.dcache.SoftPFReq_mshr_miss_latency::total     36715000                       # number of SoftPFReq MSHR miss cycles
system.cpu.dcache.demand_mshr_miss_latency::cpu.data    408387000                       # number of demand (read+write) MSHR miss cycles
system.cpu.dcache.demand_mshr_miss_latency::total    408387000                       # number of demand (read+write) MSHR miss cycles
system.cpu.dcache.overall_mshr_miss_latency::cpu.data    445102000                       # number of overall MSHR miss cycles
system.cpu.dcache.overall_mshr_miss_latency::total    445102000                       # number of overall MSHR miss cycles
system.cpu.dcache.ReadReq_mshr_miss_rate::cpu.data     0.000151                       # mshr miss rate for ReadReq accesses
system.cpu.dcache.ReadReq_mshr_miss_rate::total     0.000151                       # mshr miss rate for ReadReq accesses
system.cpu.dcache.WriteReq_mshr_miss_rate::cpu.data     0.002835                       # mshr miss rate for WriteReq accesses
system.cpu.dcache.WriteReq_mshr_miss_rate::total     0.002835                       # mshr miss rate for WriteReq accesses
system.cpu.dcache.SoftPFReq_mshr_miss_rate::cpu.data     0.452817                       # mshr miss rate for SoftPFReq accesses
system.cpu.dcache.SoftPFReq_mshr_miss_rate::total     0.452817                       # mshr miss rate for SoftPFReq accesses
system.cpu.dcache.demand_mshr_miss_rate::cpu.data     0.000534                       # mshr miss rate for demand accesses
system.cpu.dcache.demand_mshr_miss_rate::total     0.000534                       # mshr miss rate for demand accesses
system.cpu.dcache.overall_mshr_miss_rate::cpu.data     0.000586                       # mshr miss rate for overall accesses
system.cpu.dcache.overall_mshr_miss_rate::total     0.000586                       # mshr miss rate for overall accesses
system.cpu.dcache.ReadReq_avg_mshr_miss_latency::cpu.data 25039.453718                       # average ReadReq mshr miss latency
system.cpu.dcache.ReadReq_avg_mshr_miss_latency::total 25039.453718                       # average ReadReq mshr miss latency
system.cpu.dcache.WriteReq_avg_mshr_miss_latency::cpu.data 31589.957348                       # average WriteReq mshr miss latency
system.cpu.dcache.WriteReq_avg_mshr_miss_latency::total 31589.957348                       # average WriteReq mshr miss latency
system.cpu.dcache.SoftPFReq_avg_mshr_miss_latency::cpu.data 27522.488756                       # average SoftPFReq mshr miss latency
system.cpu.dcache.SoftPFReq_avg_mshr_miss_latency::total 27522.488756                       # average SoftPFReq mshr miss latency
system.cpu.dcache.demand_avg_mshr_miss_latency::cpu.data 30004.187789                       # average overall mshr miss latency
system.cpu.dcache.demand_avg_mshr_miss_latency::total 30004.187789                       # average overall mshr miss latency
system.cpu.dcache.overall_avg_mshr_miss_latency::cpu.data 29782.669789                       # average overall mshr miss latency
system.cpu.dcache.overall_avg_mshr_miss_latency::total 29782.669789                       # average overall mshr miss latency
system.cpu.dcache.no_allocate_misses                0                       # Number of misses that were no-allocate
system.cpu.dtb_walker_cache.tags.replacements            0                       # number of replacements
system.cpu.dtb_walker_cache.tags.tagsinuse            0                       # Cycle average of tags in use
system.cpu.dtb_walker_cache.tags.total_refs            0                       # Total number of references to valid blocks.
system.cpu.dtb_walker_cache.tags.sampled_refs            0                       # Sample count of references to valid blocks.
system.cpu.dtb_walker_cache.tags.avg_refs          nan                       # Average number of references to valid blocks.
system.cpu.dtb_walker_cache.tags.warmup_cycle            0                       # Cycle when the warmup percentage was hit.
system.cpu.dtb_walker_cache.tags.tag_accesses            0                       # Number of tag accesses
system.cpu.dtb_walker_cache.tags.data_accesses            0                       # Number of data accesses
system.cpu.dtb_walker_cache.blocked_cycles::no_mshrs            0                       # number of cycles access was blocked
system.cpu.dtb_walker_cache.blocked_cycles::no_targets            0                       # number of cycles access was blocked
system.cpu.dtb_walker_cache.blocked::no_mshrs            0                       # number of cycles access was blocked
system.cpu.dtb_walker_cache.blocked::no_targets            0                       # number of cycles access was blocked
system.cpu.dtb_walker_cache.avg_blocked_cycles::no_mshrs          nan                       # average number of cycles each access was blocked
system.cpu.dtb_walker_cache.avg_blocked_cycles::no_targets          nan                       # average number of cycles each access was blocked
system.cpu.dtb_walker_cache.fast_writes             0                       # number of fast writes performed
system.cpu.dtb_walker_cache.cache_copies            0                       # number of cache copies performed
system.cpu.dtb_walker_cache.no_allocate_misses            0                       # Number of misses that were no-allocate
system.cpu.icache.tags.replacements                51                       # number of replacements
system.cpu.icache.tags.tagsinuse          1255.942421                       # Cycle average of tags in use
system.cpu.icache.tags.total_refs            69566552                       # Total number of references to valid blocks.
system.cpu.icache.tags.sampled_refs              1319                       # Sample count of references to valid blocks.
system.cpu.icache.tags.avg_refs          52741.889310                       # Average number of references to valid blocks.
system.cpu.icache.tags.warmup_cycle                 0                       # Cycle when the warmup percentage was hit.
system.cpu.icache.tags.occ_blocks::cpu.inst  1255.942421                       # Average occupied blocks per requestor
system.cpu.icache.tags.occ_percent::cpu.inst     0.613253                       # Average percentage of cache occupancy
system.cpu.icache.tags.occ_percent::total     0.613253                       # Average percentage of cache occupancy
system.cpu.icache.tags.occ_task_id_blocks::1024         1268                       # Occupied blocks per task id
system.cpu.icache.tags.age_task_id_blocks_1024::3            3                       # Occupied blocks per task id
system.cpu.icache.tags.age_task_id_blocks_1024::4         1265                       # Occupied blocks per task id
system.cpu.icache.tags.occ_task_id_percent::1024     0.619141                       # Percentage of cache occupancy per task id
system.cpu.icache.tags.tag_accesses         278272803                       # Number of tag accesses
system.cpu.icache.tags.data_accesses        278272803                       # Number of data accesses
system.cpu.icache.ReadReq_hits::cpu.inst     69566552                       # number of ReadReq hits
system.cpu.icache.ReadReq_hits::total        69566552                       # number of ReadReq hits
system.cpu.icache.demand_hits::cpu.inst      69566552                       # number of demand (read+write) hits
system.cpu.icache.demand_hits::total         69566552                       # number of demand (read+write) hits
system.cpu.icache.overall_hits::cpu.inst     69566552                       # number of overall hits
system.cpu.icache.overall_hits::total        69566552                       # number of overall hits
system.cpu.icache.ReadReq_misses::cpu.inst         1319                       # number of ReadReq misses
system.cpu.icache.ReadReq_misses::total          1319                       # number of ReadReq misses
system.cpu.icache.demand_misses::cpu.inst         1319                       # number of demand (read+write) misses
system.cpu.icache.demand_misses::total           1319                       # number of demand (read+write) misses
system.cpu.icache.overall_misses::cpu.inst         1319                       # number of overall misses
system.cpu.icache.overall_misses::total          1319                       # number of overall misses
system.cpu.icache.ReadReq_miss_latency::cpu.inst    103566500                       # number of ReadReq miss cycles
system.cpu.icache.ReadReq_miss_latency::total    103566500                       # number of ReadReq miss cycles
system.cpu.icache.demand_miss_latency::cpu.inst    103566500                       # number of demand (read+write) miss cycles
system.cpu.icache.demand_miss_latency::total    103566500                       # number of demand (read+write) miss cycles
system.cpu.icache.overall_miss_latency::cpu.inst    103566500                       # number of overall miss cycles
system.cpu.icache.overall_miss_latency::total    103566500                       # number of overall miss cycles
system.cpu.icache.ReadReq_accesses::cpu.inst     69567871                       # number of ReadReq accesses(hits+misses)
system.cpu.icache.ReadReq_accesses::total     69567871                       # number of ReadReq accesses(hits+misses)
system.cpu.icache.demand_accesses::cpu.inst     69567871                       # number of demand (read+write) accesses
system.cpu.icache.demand_accesses::total     69567871                       # number of demand (read+write) accesses
system.cpu.icache.overall_accesses::cpu.inst     69567871                       # number of overall (read+write) accesses
system.cpu.icache.overall_accesses::total     69567871                       # number of overall (read+write) accesses
system.cpu.icache.ReadReq_miss_rate::cpu.inst     0.000019                       # miss rate for ReadReq accesses
system.cpu.icache.ReadReq_miss_rate::total     0.000019                       # miss rate for ReadReq accesses
system.cpu.icache.demand_miss_rate::cpu.inst     0.000019                       # miss rate for demand accesses
system.cpu.icache.demand_miss_rate::total     0.000019                       # miss rate for demand accesses
system.cpu.icache.overall_miss_rate::cpu.inst     0.000019                       # miss rate for overall accesses
system.cpu.icache.overall_miss_rate::total     0.000019                       # miss rate for overall accesses
system.cpu.icache.ReadReq_avg_miss_latency::cpu.inst 78518.953753                       # average ReadReq miss latency
system.cpu.icache.ReadReq_avg_miss_latency::total 78518.953753                       # average ReadReq miss latency
system.cpu.icache.demand_avg_miss_latency::cpu.inst 78518.953753                       # average overall miss latency
system.cpu.icache.demand_avg_miss_latency::total 78518.953753                       # average overall miss latency
system.cpu.icache.overall_avg_miss_latency::cpu.inst 78518.953753                       # average overall miss latency
system.cpu.icache.overall_avg_miss_latency::total 78518.953753                       # average overall miss latency
system.cpu.icache.blocked_cycles::no_mshrs            0                       # number of cycles access was blocked
system.cpu.icache.blocked_cycles::no_targets            0                       # number of cycles access was blocked
system.cpu.icache.blocked::no_mshrs                 0                       # number of cycles access was blocked
system.cpu.icache.blocked::no_targets               0                       # number of cycles access was blocked
system.cpu.icache.avg_blocked_cycles::no_mshrs          nan                       # average number of cycles each access was blocked
system.cpu.icache.avg_blocked_cycles::no_targets          nan                       # average number of cycles each access was blocked
system.cpu.icache.fast_writes                       0                       # number of fast writes performed
system.cpu.icache.cache_copies                      0                       # number of cache copies performed
system.cpu.icache.writebacks::writebacks           51                       # number of writebacks
system.cpu.icache.writebacks::total                51                       # number of writebacks
system.cpu.icache.ReadReq_mshr_misses::cpu.inst         1319                       # number of ReadReq MSHR misses
system.cpu.icache.ReadReq_mshr_misses::total         1319                       # number of ReadReq MSHR misses
system.cpu.icache.demand_mshr_misses::cpu.inst         1319                       # number of demand (read+write) MSHR misses
system.cpu.icache.demand_mshr_misses::total         1319                       # number of demand (read+write) MSHR misses
system.cpu.icache.overall_mshr_misses::cpu.inst         1319                       # number of overall MSHR misses
system.cpu.icache.overall_mshr_misses::total         1319                       # number of overall MSHR misses
system.cpu.icache.ReadReq_mshr_miss_latency::cpu.inst    102247500                       # number of ReadReq MSHR miss cycles
system.cpu.icache.ReadReq_mshr_miss_latency::total    102247500                       # number of ReadReq MSHR miss cycles
system.cpu.icache.demand_mshr_miss_latency::cpu.inst    102247500                       # number of demand (read+write) MSHR miss cycles
system.cpu.icache.demand_mshr_miss_latency::total    102247500                       # number of demand (read+write) MSHR miss cycles
system.cpu.icache.overall_mshr_miss_latency::cpu.inst    102247500                       # number of overall MSHR miss cycles
system.cpu.icache.overall_mshr_miss_latency::total    102247500                       # number of overall MSHR miss cycles
system.cpu.icache.ReadReq_mshr_miss_rate::cpu.inst     0.000019                       # mshr miss rate for ReadReq accesses
system.cpu.icache.ReadReq_mshr_miss_rate::total     0.000019                       # mshr miss rate for ReadReq accesses
system.cpu.icache.demand_mshr_miss_rate::cpu.inst     0.000019                       # mshr miss rate for demand accesses
system.cpu.icache.demand_mshr_miss_rate::total     0.000019                       # mshr miss rate for demand accesses
system.cpu.icache.overall_mshr_miss_rate::cpu.inst     0.000019                       # mshr miss rate for overall accesses
system.cpu.icache.overall_mshr_miss_rate::total     0.000019                       # mshr miss rate for overall accesses
system.cpu.icache.ReadReq_avg_mshr_miss_latency::cpu.inst 77518.953753                       # average ReadReq mshr miss latency
system.cpu.icache.ReadReq_avg_mshr_miss_latency::total 77518.953753                       # average ReadReq mshr miss latency
system.cpu.icache.demand_avg_mshr_miss_latency::cpu.inst 77518.953753                       # average overall mshr miss latency
system.cpu.icache.demand_avg_mshr_miss_latency::total 77518.953753                       # average overall mshr miss latency
system.cpu.icache.overall_avg_mshr_miss_latency::cpu.inst 77518.953753                       # average overall mshr miss latency
system.cpu.icache.overall_avg_mshr_miss_latency::total 77518.953753                       # average overall mshr miss latency
system.cpu.icache.no_allocate_misses                0                       # Number of misses that were no-allocate
system.cpu.itb_walker_cache.tags.replacements            0                       # number of replacements
system.cpu.itb_walker_cache.tags.tagsinuse            0                       # Cycle average of tags in use
system.cpu.itb_walker_cache.tags.total_refs            0                       # Total number of references to valid blocks.
system.cpu.itb_walker_cache.tags.sampled_refs            0                       # Sample count of references to valid blocks.
system.cpu.itb_walker_cache.tags.avg_refs          nan                       # Average number of references to valid blocks.
system.cpu.itb_walker_cache.tags.warmup_cycle            0                       # Cycle when the warmup percentage was hit.
system.cpu.itb_walker_cache.tags.tag_accesses            0                       # Number of tag accesses
system.cpu.itb_walker_cache.tags.data_accesses            0                       # Number of data accesses
system.cpu.itb_walker_cache.blocked_cycles::no_mshrs            0                       # number of cycles access was blocked
system.cpu.itb_walker_cache.blocked_cycles::no_targets            0                       # number of cycles access was blocked
system.cpu.itb_walker_cache.blocked::no_mshrs            0                       # number of cycles access was blocked
system.cpu.itb_walker_cache.blocked::no_targets            0                       # number of cycles access was blocked
system.cpu.itb_walker_cache.avg_blocked_cycles::no_mshrs          nan                       # average number of cycles each access was blocked
system.cpu.itb_walker_cache.avg_blocked_cycles::no_targets          nan                       # average number of cycles each access was blocked
system.cpu.itb_walker_cache.fast_writes             0                       # number of fast writes performed
system.cpu.itb_walker_cache.cache_copies            0                       # number of cache copies performed
system.cpu.itb_walker_cache.no_allocate_misses            0                       # Number of misses that were no-allocate
system.l2.tags.replacements                         0                       # number of replacements
system.l2.tags.tagsinuse                  3243.706038                       # Cycle average of tags in use
system.l2.tags.total_refs                        7858                       # Total number of references to valid blocks.
system.l2.tags.sampled_refs                      3360                       # Sample count of references to valid blocks.
system.l2.tags.avg_refs                      2.338690                       # Average number of references to valid blocks.
system.l2.tags.warmup_cycle                         0                       # Cycle when the warmup percentage was hit.
system.l2.tags.occ_blocks::writebacks     1257.444730                       # Average occupied blocks per requestor
system.l2.tags.occ_blocks::cpu.inst       1302.983138                       # Average occupied blocks per requestor
system.l2.tags.occ_blocks::cpu.data        683.278170                       # Average occupied blocks per requestor
system.l2.tags.occ_percent::writebacks       0.019187                       # Average percentage of cache occupancy
system.l2.tags.occ_percent::cpu.inst         0.019882                       # Average percentage of cache occupancy
system.l2.tags.occ_percent::cpu.data         0.010426                       # Average percentage of cache occupancy
system.l2.tags.occ_percent::total            0.049495                       # Average percentage of cache occupancy
system.l2.tags.occ_task_id_blocks::1024          3360                       # Occupied blocks per task id
system.l2.tags.age_task_id_blocks_1024::0            3                       # Occupied blocks per task id
system.l2.tags.age_task_id_blocks_1024::1            8                       # Occupied blocks per task id
system.l2.tags.age_task_id_blocks_1024::2            7                       # Occupied blocks per task id
system.l2.tags.age_task_id_blocks_1024::3          646                       # Occupied blocks per task id
system.l2.tags.age_task_id_blocks_1024::4         2696                       # Occupied blocks per task id
system.l2.tags.occ_task_id_percent::1024     0.051270                       # Percentage of cache occupancy per task id
system.l2.tags.tag_accesses                     72098                       # Number of tag accesses
system.l2.tags.data_accesses                    72098                       # Number of data accesses
system.l2.WritebackDirty_hits::writebacks        12087                       # number of WritebackDirty hits
system.l2.WritebackDirty_hits::total            12087                       # number of WritebackDirty hits
system.l2.WritebackClean_hits::writebacks           51                       # number of WritebackClean hits
system.l2.WritebackClean_hits::total               51                       # number of WritebackClean hits
system.l2.ReadExReq_hits::cpu.data               7535                       # number of ReadExReq hits
system.l2.ReadExReq_hits::total                  7535                       # number of ReadExReq hits
system.l2.ReadCleanReq_hits::cpu.inst               2                       # number of ReadCleanReq hits
system.l2.ReadCleanReq_hits::total                  2                       # number of ReadCleanReq hits
system.l2.ReadSharedReq_hits::cpu.data           3645                       # number of ReadSharedReq hits
system.l2.ReadSharedReq_hits::total              3645                       # number of ReadSharedReq hits
system.l2.demand_hits::cpu.inst                     2                       # number of demand (read+write) hits
system.l2.demand_hits::cpu.data                 11180                       # number of demand (read+write) hits
system.l2.demand_hits::total                    11182                       # number of demand (read+write) hits
system.l2.overall_hits::cpu.inst                    2                       # number of overall hits
system.l2.overall_hits::cpu.data                11180                       # number of overall hits
system.l2.overall_hits::total                   11182                       # number of overall hits
system.l2.ReadExReq_misses::cpu.data             2781                       # number of ReadExReq misses
system.l2.ReadExReq_misses::total                2781                       # number of ReadExReq misses
system.l2.ReadCleanReq_misses::cpu.inst          1317                       # number of ReadCleanReq misses
system.l2.ReadCleanReq_misses::total             1317                       # number of ReadCleanReq misses
system.l2.ReadSharedReq_misses::cpu.data          984                       # number of ReadSharedReq misses
system.l2.ReadSharedReq_misses::total             984                       # number of ReadSharedReq misses
system.l2.demand_misses::cpu.inst                1317                       # number of demand (read+write) misses
system.l2.demand_misses::cpu.data                3765                       # number of demand (read+write) misses
system.l2.demand_misses::total                   5082                       # number of demand (read+write) misses
system.l2.overall_misses::cpu.inst               1317                       # number of overall misses
system.l2.overall_misses::cpu.data               3765                       # number of overall misses
system.l2.overall_misses::total                  5082                       # number of overall misses
system.l2.ReadExReq_miss_latency::cpu.data    231275500                       # number of ReadExReq miss cycles
system.l2.ReadExReq_miss_latency::total     231275500                       # number of ReadExReq miss cycles
system.l2.ReadCleanReq_miss_latency::cpu.inst    100247000                       # number of ReadCleanReq miss cycles
system.l2.ReadCleanReq_miss_latency::total    100247000                       # number of ReadCleanReq miss cycles
system.l2.ReadSharedReq_miss_latency::cpu.data     74000000                       # number of ReadSharedReq miss cycles
system.l2.ReadSharedReq_miss_latency::total     74000000                       # number of ReadSharedReq miss cycles
system.l2.demand_miss_latency::cpu.inst     100247000                       # number of demand (read+write) miss cycles
system.l2.demand_miss_latency::cpu.data     305275500                       # number of demand (read+write) miss cycles
system.l2.demand_miss_latency::total        405522500                       # number of demand (read+write) miss cycles
system.l2.overall_miss_latency::cpu.inst    100247000                       # number of overall miss cycles
system.l2.overall_miss_latency::cpu.data    305275500                       # number of overall miss cycles
system.l2.overall_miss_latency::total       405522500                       # number of overall miss cycles
system.l2.WritebackDirty_accesses::writebacks        12087                       # number of WritebackDirty accesses(hits+misses)
system.l2.WritebackDirty_accesses::total        12087                       # number of WritebackDirty accesses(hits+misses)
system.l2.WritebackClean_accesses::writebacks           51                       # number of WritebackClean accesses(hits+misses)
system.l2.WritebackClean_accesses::total           51                       # number of WritebackClean accesses(hits+misses)
system.l2.ReadExReq_accesses::cpu.data          10316                       # number of ReadExReq accesses(hits+misses)
system.l2.ReadExReq_accesses::total             10316                       # number of ReadExReq accesses(hits+misses)
system.l2.ReadCleanReq_accesses::cpu.inst         1319                       # number of ReadCleanReq accesses(hits+misses)
system.l2.ReadCleanReq_accesses::total           1319                       # number of ReadCleanReq accesses(hits+misses)
system.l2.ReadSharedReq_accesses::cpu.data         4629                       # number of ReadSharedReq accesses(hits+misses)
system.l2.ReadSharedReq_accesses::total          4629                       # number of ReadSharedReq accesses(hits+misses)
system.l2.demand_accesses::cpu.inst              1319                       # number of demand (read+write) accesses
system.l2.demand_accesses::cpu.data             14945                       # number of demand (read+write) accesses
system.l2.demand_accesses::total                16264                       # number of demand (read+write) accesses
system.l2.overall_accesses::cpu.inst             1319                       # number of overall (read+write) accesses
system.l2.overall_accesses::cpu.data            14945                       # number of overall (read+write) accesses
system.l2.overall_accesses::total               16264                       # number of overall (read+write) accesses
system.l2.ReadExReq_miss_rate::cpu.data      0.269581                       # miss rate for ReadExReq accesses
system.l2.ReadExReq_miss_rate::total         0.269581                       # miss rate for ReadExReq accesses
system.l2.ReadCleanReq_miss_rate::cpu.inst     0.998484                       # miss rate for ReadCleanReq accesses
system.l2.ReadCleanReq_miss_rate::total      0.998484                       # miss rate for ReadCleanReq accesses
system.l2.ReadSharedReq_miss_rate::cpu.data     0.212573                       # miss rate for ReadSharedReq accesses
system.l2.ReadSharedReq_miss_rate::total     0.212573                       # miss rate for ReadSharedReq accesses
system.l2.demand_miss_rate::cpu.inst         0.998484                       # miss rate for demand accesses
system.l2.demand_miss_rate::cpu.data         0.251924                       # miss rate for demand accesses
system.l2.demand_miss_rate::total            0.312469                       # miss rate for demand accesses
system.l2.overall_miss_rate::cpu.inst        0.998484                       # miss rate for overall accesses
system.l2.overall_miss_rate::cpu.data        0.251924                       # miss rate for overall accesses
system.l2.overall_miss_rate::total           0.312469                       # miss rate for overall accesses
system.l2.ReadExReq_avg_miss_latency::cpu.data 83162.711255                       # average ReadExReq miss latency
system.l2.ReadExReq_avg_miss_latency::total 83162.711255                       # average ReadExReq miss latency
system.l2.ReadCleanReq_avg_miss_latency::cpu.inst 76117.691724                       # average ReadCleanReq miss latency
system.l2.ReadCleanReq_avg_miss_latency::total 76117.691724                       # average ReadCleanReq miss latency
system.l2.ReadSharedReq_avg_miss_latency::cpu.data 75203.252033                       # average ReadSharedReq miss latency
system.l2.ReadSharedReq_avg_miss_latency::total 75203.252033                       # average ReadSharedReq miss latency
system.l2.demand_avg_miss_latency::cpu.inst 76117.691724                       # average overall miss latency
system.l2.demand_avg_miss_latency::cpu.data 81082.470120                       # average overall miss latency
system.l2.demand_avg_miss_latency::total 79795.848091                       # average overall miss latency
system.l2.overall_avg_miss_latency::cpu.inst 76117.691724                       # average overall miss latency
system.l2.overall_avg_miss_latency::cpu.data 81082.470120                       # average overall miss latency
system.l2.overall_avg_miss_latency::total 79795.848091                       # average overall miss latency
system.l2.blocked_cycles::no_mshrs                  0                       # number of cycles access was blocked
system.l2.blocked_cycles::no_targets                0                       # number of cycles access was blocked
system.l2.blocked::no_mshrs                         0                       # number of cycles access was blocked
system.l2.blocked::no_targets                       0                       # number of cycles access was blocked
system.l2.avg_blocked_cycles::no_mshrs            nan                       # average number of cycles each access was blocked
system.l2.avg_blocked_cycles::no_targets          nan                       # average number of cycles each access was blocked
system.l2.fast_writes                               0                       # number of fast writes performed
system.l2.cache_copies                              0                       # number of cache copies performed
system.l2.ReadExReq_mshr_misses::cpu.data         2781                       # number of ReadExReq MSHR misses
system.l2.ReadExReq_mshr_misses::total           2781                       # number of ReadExReq MSHR misses
system.l2.ReadCleanReq_mshr_misses::cpu.inst         1317                       # number of ReadCleanReq MSHR misses
system.l2.ReadCleanReq_mshr_misses::total         1317                       # number of ReadCleanReq MSHR misses
system.l2.ReadSharedReq_mshr_misses::cpu.data          984                       # number of ReadSharedReq MSHR misses
system.l2.ReadSharedReq_mshr_misses::total          984                       # number of ReadSharedReq MSHR misses
system.l2.demand_mshr_misses::cpu.inst           1317                       # number of demand (read+write) MSHR misses
system.l2.demand_mshr_misses::cpu.data           3765                       # number of demand (read+write) MSHR misses
system.l2.demand_mshr_misses::total              5082                       # number of demand (read+write) MSHR misses
system.l2.overall_mshr_misses::cpu.inst          1317                       # number of overall MSHR misses
system.l2.overall_mshr_misses::cpu.data          3765                       # number of overall MSHR misses
system.l2.overall_mshr_misses::total             5082                       # number of overall MSHR misses
system.l2.ReadExReq_mshr_miss_latency::cpu.data    203465500                       # number of ReadExReq MSHR miss cycles
system.l2.ReadExReq_mshr_miss_latency::total    203465500                       # number of ReadExReq MSHR miss cycles
system.l2.ReadCleanReq_mshr_miss_latency::cpu.inst     87077000                       # number of ReadCleanReq MSHR miss cycles
system.l2.ReadCleanReq_mshr_miss_latency::total     87077000                       # number of ReadCleanReq MSHR miss cycles
system.l2.ReadSharedReq_mshr_miss_latency::cpu.data     64160000                       # number of ReadSharedReq MSHR miss cycles
system.l2.ReadSharedReq_mshr_miss_latency::total     64160000                       # number of ReadSharedReq MSHR miss cycles
system.l2.demand_mshr_miss_latency::cpu.inst     87077000                       # number of demand (read+write) MSHR miss cycles
system.l2.demand_mshr_miss_latency::cpu.data    267625500                       # number of demand (read+write) MSHR miss cycles
system.l2.demand_mshr_miss_latency::total    354702500                       # number of demand (read+write) MSHR miss cycles
system.l2.overall_mshr_miss_latency::cpu.inst     87077000                       # number of overall MSHR miss cycles
system.l2.overall_mshr_miss_latency::cpu.data    267625500                       # number of overall MSHR miss cycles
system.l2.overall_mshr_miss_latency::total    354702500                       # number of overall MSHR miss cycles
system.l2.ReadExReq_mshr_miss_rate::cpu.data     0.269581                       # mshr miss rate for ReadExReq accesses
system.l2.ReadExReq_mshr_miss_rate::total     0.269581                       # mshr miss rate for ReadExReq accesses
system.l2.ReadCleanReq_mshr_miss_rate::cpu.inst     0.998484                       # mshr miss rate for ReadCleanReq accesses
system.l2.ReadCleanReq_mshr_miss_rate::total     0.998484                       # mshr miss rate for ReadCleanReq accesses
system.l2.ReadSharedReq_mshr_miss_rate::cpu.data     0.212573                       # mshr miss rate for ReadSharedReq accesses
system.l2.ReadSharedReq_mshr_miss_rate::total     0.212573                       # mshr miss rate for ReadSharedReq accesses
system.l2.demand_mshr_miss_rate::cpu.inst     0.998484                       # mshr miss rate for demand accesses
system.l2.demand_mshr_miss_rate::cpu.data     0.251924                       # mshr miss rate for demand accesses
system.l2.demand_mshr_miss_rate::total       0.312469                       # mshr miss rate for demand accesses
system.l2.overall_mshr_miss_rate::cpu.inst     0.998484                       # mshr miss rate for overall accesses
system.l2.overall_mshr_miss_rate::cpu.data     0.251924                       # mshr miss rate for overall accesses
system.l2.overall_mshr_miss_rate::total      0.312469                       # mshr miss rate for overall accesses
system.l2.ReadExReq_avg_mshr_miss_latency::cpu.data 73162.711255                       # average ReadExReq mshr miss latency
system.l2.ReadExReq_avg_mshr_miss_latency::total 73162.711255                       # average ReadExReq mshr miss latency
system.l2.ReadCleanReq_avg_mshr_miss_latency::cpu.inst 66117.691724                       # average ReadCleanReq mshr miss latency
system.l2.ReadCleanReq_avg_mshr_miss_latency::total 66117.691724                       # average ReadCleanReq mshr miss latency
system.l2.ReadSharedReq_avg_mshr_miss_latency::cpu.data 65203.252033                       # average ReadSharedReq mshr miss latency
system.l2.ReadSharedReq_avg_mshr_miss_latency::total 65203.252033                       # average ReadSharedReq mshr miss latency
system.l2.demand_avg_mshr_miss_latency::cpu.inst 66117.691724                       # average overall mshr miss latency
system.l2.demand_avg_mshr_miss_latency::cpu.data 71082.470120                       # average overall mshr miss latency
system.l2.demand_avg_mshr_miss_latency::total 69795.848091                       # average overall mshr miss latency
system.l2.overall_avg_mshr_miss_latency::cpu.inst 66117.691724                       # average overall mshr miss latency
system.l2.overall_avg_mshr_miss_latency::cpu.data 71082.470120                       # average overall mshr miss latency
system.l2.overall_avg_mshr_miss_latency::total 69795.848091                       # average overall mshr miss latency
system.l2.no_allocate_misses                        0                       # Number of misses that were no-allocate
system.membus.trans_dist::ReadResp               2301                       # Transaction distribution
system.membus.trans_dist::ReadExReq              2781                       # Transaction distribution
system.membus.trans_dist::ReadExResp             2781                       # Transaction distribution
system.membus.trans_dist::ReadSharedReq          2301                       # Transaction distribution
system.membus.pkt_count_system.l2.mem_side::system.mem_ctrls.port        10164                       # Packet count per connected master and slave (bytes)
system.membus.pkt_count_system.l2.mem_side::total        10164                       # Packet count per connected master and slave (bytes)
system.membus.pkt_count::total                  10164                       # Packet count per connected master and slave (bytes)
system.membus.pkt_size_system.l2.mem_side::system.mem_ctrls.port       325248                       # Cumulative packet size per connected master and slave (bytes)
system.membus.pkt_size_system.l2.mem_side::total       325248                       # Cumulative packet size per connected master and slave (bytes)
system.membus.pkt_size::total                  325248                       # Cumulative packet size per connected master and slave (bytes)
system.membus.snoops                                0                       # Total snoops (count)
system.membus.snoop_fanout::samples              5082                       # Request fanout histogram
system.membus.snoop_fanout::mean                    0                       # Request fanout histogram
system.membus.snoop_fanout::stdev                   0                       # Request fanout histogram
system.membus.snoop_fanout::underflows              0      0.00%      0.00% # Request fanout histogram
system.membus.snoop_fanout::0                    5082    100.00%    100.00% # Request fanout histogram
system.membus.snoop_fanout::1                       0      0.00%    100.00% # Request fanout histogram
system.membus.snoop_fanout::overflows               0      0.00%    100.00% # Request fanout histogram
system.membus.snoop_fanout::min_value               0                       # Request fanout histogram
system.membus.snoop_fanout::max_value               0                       # Request fanout histogram
system.membus.snoop_fanout::total                5082                       # Request fanout histogram
system.membus.reqLayer2.occupancy             5162500                       # Layer occupancy (ticks)
system.membus.reqLayer2.utilization               0.0                       # Layer utilization (%)
system.membus.respLayer1.occupancy           27197750                       # Layer occupancy (ticks)
system.membus.respLayer1.utilization              0.0                       # Layer utilization (%)
system.tol2bus.snoop_filter.tot_requests        29212                       # Total number of requests made to the snoop filter.
system.tol2bus.snoop_filter.hit_single_requests        12948                       # Number of requests hitting in the snoop filter with a single holder of the requested data.
system.tol2bus.snoop_filter.hit_multi_requests            1                       # Number of requests hitting in the snoop filter with multiple (>1) holders of the requested data.
system.tol2bus.snoop_filter.tot_snoops              0                       # Total number of snoops made to the snoop filter.
system.tol2bus.snoop_filter.hit_single_snoops            0                       # Number of snoops hitting in the snoop filter with a single holder of the requested data.
system.tol2bus.snoop_filter.hit_multi_snoops            0                       # Number of snoops hitting in the snoop filter with multiple (>1) holders of the requested data.
system.tol2bus.trans_dist::ReadResp              5948                       # Transaction distribution
system.tol2bus.trans_dist::WritebackDirty        12087                       # Transaction distribution
system.tol2bus.trans_dist::WritebackClean           51                       # Transaction distribution
system.tol2bus.trans_dist::CleanEvict             809                       # Transaction distribution
system.tol2bus.trans_dist::ReadExReq            10316                       # Transaction distribution
system.tol2bus.trans_dist::ReadExResp           10316                       # Transaction distribution
system.tol2bus.trans_dist::ReadCleanReq          1319                       # Transaction distribution
system.tol2bus.trans_dist::ReadSharedReq         4629                       # Transaction distribution
system.tol2bus.pkt_count_system.cpu.icache.mem_side::system.l2.cpu_side         2689                       # Packet count per connected master and slave (bytes)
system.tol2bus.pkt_count_system.cpu.dcache.mem_side::system.l2.cpu_side        42786                       # Packet count per connected master and slave (bytes)
system.tol2bus.pkt_count::total                 45475                       # Packet count per connected master and slave (bytes)
system.tol2bus.pkt_size_system.cpu.icache.mem_side::system.l2.cpu_side        87680                       # Cumulative packet size per connected master and slave (bytes)
system.tol2bus.pkt_size_system.cpu.dcache.mem_side::system.l2.cpu_side      1730048                       # Cumulative packet size per connected master and slave (bytes)
system.tol2bus.pkt_size::total                1817728                       # Cumulative packet size per connected master and slave (bytes)
system.tol2bus.snoops                               0                       # Total snoops (count)
system.tol2bus.snoop_fanout::samples            16264                       # Request fanout histogram
system.tol2bus.snoop_fanout::mean            0.000061                       # Request fanout histogram
system.tol2bus.snoop_fanout::stdev           0.007841                       # Request fanout histogram
system.tol2bus.snoop_fanout::underflows             0      0.00%      0.00% # Request fanout histogram
system.tol2bus.snoop_fanout::0                  16263     99.99%     99.99% # Request fanout histogram
system.tol2bus.snoop_fanout::1                      1      0.01%    100.00% # Request fanout histogram
system.tol2bus.snoop_fanout::2                      0      0.00%    100.00% # Request fanout histogram
system.tol2bus.snoop_fanout::3                      0      0.00%    100.00% # Request fanout histogram
system.tol2bus.snoop_fanout::4                      0      0.00%    100.00% # Request fanout histogram
system.tol2bus.snoop_fanout::overflows              0      0.00%    100.00% # Request fanout histogram
system.tol2bus.snoop_fanout::min_value              0                       # Request fanout histogram
system.tol2bus.snoop_fanout::max_value              1                       # Request fanout histogram
system.tol2bus.snoop_fanout::total              16264                       # Request fanout histogram
system.tol2bus.reqLayer0.occupancy           26744000                       # Layer occupancy (ticks)
system.tol2bus.reqLayer0.utilization              0.0                       # Layer utilization (%)
system.tol2bus.respLayer0.occupancy           1978500                       # Layer occupancy (ticks)
system.tol2bus.respLayer0.utilization             0.0                       # Layer utilization (%)
system.tol2bus.respLayer1.occupancy          22417500                       # Layer occupancy (ticks)
system.tol2bus.respLayer1.utilization             0.0                       # Layer utilization (%)

---------- End Simulation Statistics   ----------
