
---------- Begin Simulation Statistics ----------
sim_seconds                                  0.645614                       # Number of seconds simulated
sim_ticks                                645614135500                       # Number of ticks simulated
final_tick                               645614135500                       # Number of ticks from beginning of simulation (restored from checkpoints and never reset)
sim_freq                                 1000000000000                       # Frequency of simulated ticks
host_inst_rate                                 237923                       # Simulator instruction rate (inst/s)
host_op_rate                                   456723                       # Simulator op (including micro ops) rate (op/s)
host_tick_rate                             3072130711                       # Simulator tick rate (ticks/s)
host_mem_usage                                 837340                       # Number of bytes of host memory used
host_seconds                                   210.15                       # Real time elapsed on the host
sim_insts                                    50000000                       # Number of instructions simulated
sim_ops                                      95981252                       # Number of ops (including micro ops) simulated
system.voltage_domain.voltage                       1                       # Voltage in Volts
system.clk_domain.clock                          1000                       # Clock period in ticks
system.mem_ctrls.bytes_read::cpu.inst           51200                       # Number of bytes read from this memory
system.mem_ctrls.bytes_read::cpu.data       414840192                       # Number of bytes read from this memory
system.mem_ctrls.bytes_read::total          414891392                       # Number of bytes read from this memory
system.mem_ctrls.bytes_inst_read::cpu.inst        51200                       # Number of instructions bytes read from this memory
system.mem_ctrls.bytes_inst_read::total         51200                       # Number of instructions bytes read from this memory
system.mem_ctrls.bytes_written::writebacks    412726272                       # Number of bytes written to this memory
system.mem_ctrls.bytes_written::total       412726272                       # Number of bytes written to this memory
system.mem_ctrls.num_reads::cpu.inst              800                       # Number of read requests responded to by this memory
system.mem_ctrls.num_reads::cpu.data          6481878                       # Number of read requests responded to by this memory
system.mem_ctrls.num_reads::total             6482678                       # Number of read requests responded to by this memory
system.mem_ctrls.num_writes::writebacks       6448848                       # Number of write requests responded to by this memory
system.mem_ctrls.num_writes::total            6448848                       # Number of write requests responded to by this memory
system.mem_ctrls.bw_read::cpu.inst              79304                       # Total read bandwidth from this memory (bytes/s)
system.mem_ctrls.bw_read::cpu.data          642551284                       # Total read bandwidth from this memory (bytes/s)
system.mem_ctrls.bw_read::total             642630589                       # Total read bandwidth from this memory (bytes/s)
system.mem_ctrls.bw_inst_read::cpu.inst         79304                       # Instruction read bandwidth from this memory (bytes/s)
system.mem_ctrls.bw_inst_read::total            79304                       # Instruction read bandwidth from this memory (bytes/s)
system.mem_ctrls.bw_write::writebacks       639277007                       # Write bandwidth from this memory (bytes/s)
system.mem_ctrls.bw_write::total            639277007                       # Write bandwidth from this memory (bytes/s)
system.mem_ctrls.bw_total::writebacks       639277007                       # Total bandwidth to/from this memory (bytes/s)
system.mem_ctrls.bw_total::cpu.inst             79304                       # Total bandwidth to/from this memory (bytes/s)
system.mem_ctrls.bw_total::cpu.data         642551284                       # Total bandwidth to/from this memory (bytes/s)
system.mem_ctrls.bw_total::total           1281907595                       # Total bandwidth to/from this memory (bytes/s)
system.mem_ctrls.readReqs                     6482678                       # Number of read requests accepted
system.mem_ctrls.writeReqs                    6448848                       # Number of write requests accepted
system.mem_ctrls.readBursts                   6482678                       # Number of DRAM read bursts, including those serviced by the write queue
system.mem_ctrls.writeBursts                  6448848                       # Number of DRAM write bursts, including those merged in the write queue
system.mem_ctrls.bytesReadDRAM              414891392                       # Total number of bytes read from DRAM
system.mem_ctrls.bytesReadWrQ                       0                       # Total number of bytes read from write queue
system.mem_ctrls.bytesWritten               412724992                       # Total number of bytes written to DRAM
system.mem_ctrls.bytesReadSys               414891392                       # Total read bytes from the system interface side
system.mem_ctrls.bytesWrittenSys            412726272                       # Total written bytes from the system interface side
system.mem_ctrls.servicedByWrQ                      0                       # Number of DRAM read bursts serviced by the write queue
system.mem_ctrls.mergedWrBursts                     0                       # Number of DRAM write bursts merged with an existing one
system.mem_ctrls.neitherReadNorWriteReqs          332                       # Number of requests that are neither read nor write
system.mem_ctrls.perBankRdBursts::0            405123                       # Per bank write bursts
system.mem_ctrls.perBankRdBursts::1            405057                       # Per bank write bursts
system.mem_ctrls.perBankRdBursts::2            405046                       # Per bank write bursts
system.mem_ctrls.perBankRdBursts::3            405055                       # Per bank write bursts
system.mem_ctrls.perBankRdBursts::4            405157                       # Per bank write bursts
system.mem_ctrls.perBankRdBursts::5            405099                       # Per bank write bursts
system.mem_ctrls.perBankRdBursts::6            404911                       # Per bank write bursts
system.mem_ctrls.perBankRdBursts::7            405003                       # Per bank write bursts
system.mem_ctrls.perBankRdBursts::8            405005                       # Per bank write bursts
system.mem_ctrls.perBankRdBursts::9            405137                       # Per bank write bursts
system.mem_ctrls.perBankRdBursts::10           405258                       # Per bank write bursts
system.mem_ctrls.perBankRdBursts::11           405381                       # Per bank write bursts
system.mem_ctrls.perBankRdBursts::12           405354                       # Per bank write bursts
system.mem_ctrls.perBankRdBursts::13           405375                       # Per bank write bursts
system.mem_ctrls.perBankRdBursts::14           405357                       # Per bank write bursts
system.mem_ctrls.perBankRdBursts::15           405360                       # Per bank write bursts
system.mem_ctrls.perBankWrBursts::0            402944                       # Per bank write bursts
system.mem_ctrls.perBankWrBursts::1            402956                       # Per bank write bursts
system.mem_ctrls.perBankWrBursts::2            402972                       # Per bank write bursts
system.mem_ctrls.perBankWrBursts::3            402908                       # Per bank write bursts
system.mem_ctrls.perBankWrBursts::4            402988                       # Per bank write bursts
system.mem_ctrls.perBankWrBursts::5            402941                       # Per bank write bursts
system.mem_ctrls.perBankWrBursts::6            402824                       # Per bank write bursts
system.mem_ctrls.perBankWrBursts::7            402864                       # Per bank write bursts
system.mem_ctrls.perBankWrBursts::8            402930                       # Per bank write bursts
system.mem_ctrls.perBankWrBursts::9            403023                       # Per bank write bursts
system.mem_ctrls.perBankWrBursts::10           403146                       # Per bank write bursts
system.mem_ctrls.perBankWrBursts::11           403299                       # Per bank write bursts
system.mem_ctrls.perBankWrBursts::12           403273                       # Per bank write bursts
system.mem_ctrls.perBankWrBursts::13           403262                       # Per bank write bursts
system.mem_ctrls.perBankWrBursts::14           403267                       # Per bank write bursts
system.mem_ctrls.perBankWrBursts::15           403231                       # Per bank write bursts
system.mem_ctrls.numRdRetry                         0                       # Number of times read queue was full causing retry
system.mem_ctrls.numWrRetry                         0                       # Number of times write queue was full causing retry
system.mem_ctrls.totGap                  645614109500                       # Total gap between requests
system.mem_ctrls.readPktSize::0                     0                       # Read request sizes (log2)
system.mem_ctrls.readPktSize::1                     0                       # Read request sizes (log2)
system.mem_ctrls.readPktSize::2                     0                       # Read request sizes (log2)
system.mem_ctrls.readPktSize::3                     0                       # Read request sizes (log2)
system.mem_ctrls.readPktSize::4                     0                       # Read request sizes (log2)
system.mem_ctrls.readPktSize::5                     0                       # Read request sizes (log2)
system.mem_ctrls.readPktSize::6               6482678                       # Read request sizes (log2)
system.mem_ctrls.writePktSize::0                    0                       # Write request sizes (log2)
system.mem_ctrls.writePktSize::1                    0                       # Write request sizes (log2)
system.mem_ctrls.writePktSize::2                    0                       # Write request sizes (log2)
system.mem_ctrls.writePktSize::3                    0                       # Write request sizes (log2)
system.mem_ctrls.writePktSize::4                    0                       # Write request sizes (log2)
system.mem_ctrls.writePktSize::5                    0                       # Write request sizes (log2)
system.mem_ctrls.writePktSize::6              6448848                       # Write request sizes (log2)
system.mem_ctrls.rdQLenPdf::0                 6482677                       # What read queue length does an incoming req see
system.mem_ctrls.rdQLenPdf::1                       1                       # What read queue length does an incoming req see
system.mem_ctrls.rdQLenPdf::2                       0                       # What read queue length does an incoming req see
system.mem_ctrls.rdQLenPdf::3                       0                       # What read queue length does an incoming req see
system.mem_ctrls.rdQLenPdf::4                       0                       # What read queue length does an incoming req see
system.mem_ctrls.rdQLenPdf::5                       0                       # What read queue length does an incoming req see
system.mem_ctrls.rdQLenPdf::6                       0                       # What read queue length does an incoming req see
system.mem_ctrls.rdQLenPdf::7                       0                       # What read queue length does an incoming req see
system.mem_ctrls.rdQLenPdf::8                       0                       # What read queue length does an incoming req see
system.mem_ctrls.rdQLenPdf::9                       0                       # What read queue length does an incoming req see
system.mem_ctrls.rdQLenPdf::10                      0                       # What read queue length does an incoming req see
system.mem_ctrls.rdQLenPdf::11                      0                       # What read queue length does an incoming req see
system.mem_ctrls.rdQLenPdf::12                      0                       # What read queue length does an incoming req see
system.mem_ctrls.rdQLenPdf::13                      0                       # What read queue length does an incoming req see
system.mem_ctrls.rdQLenPdf::14                      0                       # What read queue length does an incoming req see
system.mem_ctrls.rdQLenPdf::15                      0                       # What read queue length does an incoming req see
system.mem_ctrls.rdQLenPdf::16                      0                       # What read queue length does an incoming req see
system.mem_ctrls.rdQLenPdf::17                      0                       # What read queue length does an incoming req see
system.mem_ctrls.rdQLenPdf::18                      0                       # What read queue length does an incoming req see
system.mem_ctrls.rdQLenPdf::19                      0                       # What read queue length does an incoming req see
system.mem_ctrls.rdQLenPdf::20                      0                       # What read queue length does an incoming req see
system.mem_ctrls.rdQLenPdf::21                      0                       # What read queue length does an incoming req see
system.mem_ctrls.rdQLenPdf::22                      0                       # What read queue length does an incoming req see
system.mem_ctrls.rdQLenPdf::23                      0                       # What read queue length does an incoming req see
system.mem_ctrls.rdQLenPdf::24                      0                       # What read queue length does an incoming req see
system.mem_ctrls.rdQLenPdf::25                      0                       # What read queue length does an incoming req see
system.mem_ctrls.rdQLenPdf::26                      0                       # What read queue length does an incoming req see
system.mem_ctrls.rdQLenPdf::27                      0                       # What read queue length does an incoming req see
system.mem_ctrls.rdQLenPdf::28                      0                       # What read queue length does an incoming req see
system.mem_ctrls.rdQLenPdf::29                      0                       # What read queue length does an incoming req see
system.mem_ctrls.rdQLenPdf::30                      0                       # What read queue length does an incoming req see
system.mem_ctrls.rdQLenPdf::31                      0                       # What read queue length does an incoming req see
system.mem_ctrls.wrQLenPdf::0                       1                       # What write queue length does an incoming req see
system.mem_ctrls.wrQLenPdf::1                       1                       # What write queue length does an incoming req see
system.mem_ctrls.wrQLenPdf::2                       1                       # What write queue length does an incoming req see
system.mem_ctrls.wrQLenPdf::3                       1                       # What write queue length does an incoming req see
system.mem_ctrls.wrQLenPdf::4                       1                       # What write queue length does an incoming req see
system.mem_ctrls.wrQLenPdf::5                       1                       # What write queue length does an incoming req see
system.mem_ctrls.wrQLenPdf::6                       1                       # What write queue length does an incoming req see
system.mem_ctrls.wrQLenPdf::7                       1                       # What write queue length does an incoming req see
system.mem_ctrls.wrQLenPdf::8                       1                       # What write queue length does an incoming req see
system.mem_ctrls.wrQLenPdf::9                       1                       # What write queue length does an incoming req see
system.mem_ctrls.wrQLenPdf::10                      1                       # What write queue length does an incoming req see
system.mem_ctrls.wrQLenPdf::11                      1                       # What write queue length does an incoming req see
system.mem_ctrls.wrQLenPdf::12                      1                       # What write queue length does an incoming req see
system.mem_ctrls.wrQLenPdf::13                      1                       # What write queue length does an incoming req see
system.mem_ctrls.wrQLenPdf::14                      1                       # What write queue length does an incoming req see
system.mem_ctrls.wrQLenPdf::15                    987                       # What write queue length does an incoming req see
system.mem_ctrls.wrQLenPdf::16                    990                       # What write queue length does an incoming req see
system.mem_ctrls.wrQLenPdf::17                 401221                       # What write queue length does an incoming req see
system.mem_ctrls.wrQLenPdf::18                 402869                       # What write queue length does an incoming req see
system.mem_ctrls.wrQLenPdf::19                 402873                       # What write queue length does an incoming req see
system.mem_ctrls.wrQLenPdf::20                 402869                       # What write queue length does an incoming req see
system.mem_ctrls.wrQLenPdf::21                 402869                       # What write queue length does an incoming req see
system.mem_ctrls.wrQLenPdf::22                 402870                       # What write queue length does an incoming req see
system.mem_ctrls.wrQLenPdf::23                 402867                       # What write queue length does an incoming req see
system.mem_ctrls.wrQLenPdf::24                 402872                       # What write queue length does an incoming req see
system.mem_ctrls.wrQLenPdf::25                 405467                       # What write queue length does an incoming req see
system.mem_ctrls.wrQLenPdf::26                 402867                       # What write queue length does an incoming req see
system.mem_ctrls.wrQLenPdf::27                 402869                       # What write queue length does an incoming req see
system.mem_ctrls.wrQLenPdf::28                 402871                       # What write queue length does an incoming req see
system.mem_ctrls.wrQLenPdf::29                 402869                       # What write queue length does an incoming req see
system.mem_ctrls.wrQLenPdf::30                 402868                       # What write queue length does an incoming req see
system.mem_ctrls.wrQLenPdf::31                 402868                       # What write queue length does an incoming req see
system.mem_ctrls.wrQLenPdf::32                 402867                       # What write queue length does an incoming req see
system.mem_ctrls.wrQLenPdf::33                      0                       # What write queue length does an incoming req see
system.mem_ctrls.wrQLenPdf::34                      0                       # What write queue length does an incoming req see
system.mem_ctrls.wrQLenPdf::35                      0                       # What write queue length does an incoming req see
system.mem_ctrls.wrQLenPdf::36                      0                       # What write queue length does an incoming req see
system.mem_ctrls.wrQLenPdf::37                      0                       # What write queue length does an incoming req see
system.mem_ctrls.wrQLenPdf::38                      0                       # What write queue length does an incoming req see
system.mem_ctrls.wrQLenPdf::39                      0                       # What write queue length does an incoming req see
system.mem_ctrls.wrQLenPdf::40                      0                       # What write queue length does an incoming req see
system.mem_ctrls.wrQLenPdf::41                      0                       # What write queue length does an incoming req see
system.mem_ctrls.wrQLenPdf::42                      0                       # What write queue length does an incoming req see
system.mem_ctrls.wrQLenPdf::43                      0                       # What write queue length does an incoming req see
system.mem_ctrls.wrQLenPdf::44                      0                       # What write queue length does an incoming req see
system.mem_ctrls.wrQLenPdf::45                      0                       # What write queue length does an incoming req see
system.mem_ctrls.wrQLenPdf::46                      0                       # What write queue length does an incoming req see
system.mem_ctrls.wrQLenPdf::47                      0                       # What write queue length does an incoming req see
system.mem_ctrls.wrQLenPdf::48                      0                       # What write queue length does an incoming req see
system.mem_ctrls.wrQLenPdf::49                      0                       # What write queue length does an incoming req see
system.mem_ctrls.wrQLenPdf::50                      0                       # What write queue length does an incoming req see
system.mem_ctrls.wrQLenPdf::51                      0                       # What write queue length does an incoming req see
system.mem_ctrls.wrQLenPdf::52                      0                       # What write queue length does an incoming req see
system.mem_ctrls.wrQLenPdf::53                      0                       # What write queue length does an incoming req see
system.mem_ctrls.wrQLenPdf::54                      0                       # What write queue length does an incoming req see
system.mem_ctrls.wrQLenPdf::55                      0                       # What write queue length does an incoming req see
system.mem_ctrls.wrQLenPdf::56                      0                       # What write queue length does an incoming req see
system.mem_ctrls.wrQLenPdf::57                      0                       # What write queue length does an incoming req see
system.mem_ctrls.wrQLenPdf::58                      0                       # What write queue length does an incoming req see
system.mem_ctrls.wrQLenPdf::59                      0                       # What write queue length does an incoming req see
system.mem_ctrls.wrQLenPdf::60                      0                       # What write queue length does an incoming req see
system.mem_ctrls.wrQLenPdf::61                      0                       # What write queue length does an incoming req see
system.mem_ctrls.wrQLenPdf::62                      0                       # What write queue length does an incoming req see
system.mem_ctrls.wrQLenPdf::63                      0                       # What write queue length does an incoming req see
system.mem_ctrls.bytesPerActivate::samples       976900                       # Bytes accessed per row activation
system.mem_ctrls.bytesPerActivate::mean    847.185407                       # Bytes accessed per row activation
system.mem_ctrls.bytesPerActivate::gmean   739.359415                       # Bytes accessed per row activation
system.mem_ctrls.bytesPerActivate::stdev   297.755986                       # Bytes accessed per row activation
system.mem_ctrls.bytesPerActivate::0-127        32204      3.30%      3.30% # Bytes accessed per row activation
system.mem_ctrls.bytesPerActivate::128-255        37984      3.89%      7.18% # Bytes accessed per row activation
system.mem_ctrls.bytesPerActivate::256-383        48116      4.93%     12.11% # Bytes accessed per row activation
system.mem_ctrls.bytesPerActivate::384-511        43799      4.48%     16.59% # Bytes accessed per row activation
system.mem_ctrls.bytesPerActivate::512-639        34602      3.54%     20.14% # Bytes accessed per row activation
system.mem_ctrls.bytesPerActivate::640-767        54589      5.59%     25.72% # Bytes accessed per row activation
system.mem_ctrls.bytesPerActivate::768-895        32994      3.38%     29.10% # Bytes accessed per row activation
system.mem_ctrls.bytesPerActivate::896-1023        42940      4.40%     33.50% # Bytes accessed per row activation
system.mem_ctrls.bytesPerActivate::1024-1151       649672     66.50%    100.00% # Bytes accessed per row activation
system.mem_ctrls.bytesPerActivate::total       976900                       # Bytes accessed per row activation
system.mem_ctrls.rdPerTurnAround::samples       402867                       # Reads before turning the bus around for writes
system.mem_ctrls.rdPerTurnAround::mean      16.091353                       # Reads before turning the bus around for writes
system.mem_ctrls.rdPerTurnAround::gmean     16.010402                       # Reads before turning the bus around for writes
system.mem_ctrls.rdPerTurnAround::stdev     35.553668                       # Reads before turning the bus around for writes
system.mem_ctrls.rdPerTurnAround::0-1023       402862    100.00%    100.00% # Reads before turning the bus around for writes
system.mem_ctrls.rdPerTurnAround::1024-2047            2      0.00%    100.00% # Reads before turning the bus around for writes
system.mem_ctrls.rdPerTurnAround::2048-3071            1      0.00%    100.00% # Reads before turning the bus around for writes
system.mem_ctrls.rdPerTurnAround::3072-4095            1      0.00%    100.00% # Reads before turning the bus around for writes
system.mem_ctrls.rdPerTurnAround::21504-22527            1      0.00%    100.00% # Reads before turning the bus around for writes
system.mem_ctrls.rdPerTurnAround::total        402867                       # Reads before turning the bus around for writes
system.mem_ctrls.wrPerTurnAround::samples       402867                       # Writes before turning the bus around for reads
system.mem_ctrls.wrPerTurnAround::mean      16.007337                       # Writes before turning the bus around for reads
system.mem_ctrls.wrPerTurnAround::gmean     16.006728                       # Writes before turning the bus around for reads
system.mem_ctrls.wrPerTurnAround::stdev      0.147999                       # Writes before turning the bus around for reads
system.mem_ctrls.wrPerTurnAround::16           401878     99.75%     99.75% # Writes before turning the bus around for reads
system.mem_ctrls.wrPerTurnAround::18               11      0.00%     99.76% # Writes before turning the bus around for reads
system.mem_ctrls.wrPerTurnAround::19              978      0.24%    100.00% # Writes before turning the bus around for reads
system.mem_ctrls.wrPerTurnAround::total        402867                       # Writes before turning the bus around for reads
system.mem_ctrls.totQLat                  67615412250                       # Total ticks spent queuing
system.mem_ctrls.totMemAccLat            189165624750                       # Total ticks spent from burst creation until serviced by the DRAM
system.mem_ctrls.totBusLat                32413390000                       # Total ticks spent in databus transfers
system.mem_ctrls.avgQLat                     10430.17                       # Average queueing delay per DRAM burst
system.mem_ctrls.avgBusLat                    5000.00                       # Average bus latency per DRAM burst
system.mem_ctrls.avgMemAccLat                29180.17                       # Average memory access latency per DRAM burst
system.mem_ctrls.avgRdBW                       642.63                       # Average DRAM read bandwidth in MiByte/s
system.mem_ctrls.avgWrBW                       639.28                       # Average achieved write bandwidth in MiByte/s
system.mem_ctrls.avgRdBWSys                    642.63                       # Average system read bandwidth in MiByte/s
system.mem_ctrls.avgWrBWSys                    639.28                       # Average system write bandwidth in MiByte/s
system.mem_ctrls.peakBW                      12800.00                       # Theoretical peak bandwidth in MiByte/s
system.mem_ctrls.busUtil                        10.01                       # Data bus utilization in percentage
system.mem_ctrls.busUtilRead                     5.02                       # Data bus utilization in percentage for reads
system.mem_ctrls.busUtilWrite                    4.99                       # Data bus utilization in percentage for writes
system.mem_ctrls.avgRdQLen                       1.00                       # Average read queue length when enqueuing
system.mem_ctrls.avgWrQLen                      25.69                       # Average write queue length when enqueuing
system.mem_ctrls.readRowHits                  5954583                       # Number of row buffer hits during reads
system.mem_ctrls.writeRowHits                 6000022                       # Number of row buffer hits during writes
system.mem_ctrls.readRowHitRate                 91.85                       # Row buffer hit rate for reads
system.mem_ctrls.writeRowHitRate                93.04                       # Row buffer hit rate for writes
system.mem_ctrls.avgGap                      49925.59                       # Average gap between requests
system.mem_ctrls.pageHitRate                    92.45                       # Row buffer hit rate, read and write combined
system.mem_ctrls_0.actEnergy               3692228400                       # Energy for activate commands per rank (pJ)
system.mem_ctrls_0.preEnergy               2014608750                       # Energy for precharge commands per rank (pJ)
system.mem_ctrls_0.readEnergy             25275400800                       # Energy for read commands per rank (pJ)
system.mem_ctrls_0.writeEnergy            20887612560                       # Energy for write commands per rank (pJ)
system.mem_ctrls_0.refreshEnergy          42168269520                       # Energy for refresh commands per rank (pJ)
system.mem_ctrls_0.actBackEnergy         228737350575                       # Energy for active background per rank (pJ)
system.mem_ctrls_0.preBackEnergy         186720843750                       # Energy for precharge background per rank (pJ)
system.mem_ctrls_0.totalEnergy           509496314355                       # Total energy per rank (pJ)
system.mem_ctrls_0.averagePower            789.167073                       # Core power per rank (mW)
system.mem_ctrls_0.memoryStateTime::IDLE 305819429750                       # Time in different power states
system.mem_ctrls_0.memoryStateTime::REF   21558420000                       # Time in different power states
system.mem_ctrls_0.memoryStateTime::PRE_PDN            0                       # Time in different power states
system.mem_ctrls_0.memoryStateTime::ACT  318234901500                       # Time in different power states
system.mem_ctrls_0.memoryStateTime::ACT_PDN            0                       # Time in different power states
system.mem_ctrls_1.actEnergy               3693128040                       # Energy for activate commands per rank (pJ)
system.mem_ctrls_1.preEnergy               2015099625                       # Energy for precharge commands per rank (pJ)
system.mem_ctrls_1.readEnergy             25289370600                       # Energy for read commands per rank (pJ)
system.mem_ctrls_1.writeEnergy            20900689200                       # Energy for write commands per rank (pJ)
system.mem_ctrls_1.refreshEnergy          42168269520                       # Energy for refresh commands per rank (pJ)
system.mem_ctrls_1.actBackEnergy         228988682100                       # Energy for active background per rank (pJ)
system.mem_ctrls_1.preBackEnergy         186500385750                       # Energy for precharge background per rank (pJ)
system.mem_ctrls_1.totalEnergy           509555624835                       # Total energy per rank (pJ)
system.mem_ctrls_1.averagePower            789.258923                       # Core power per rank (mW)
system.mem_ctrls_1.memoryStateTime::IDLE 305445701250                       # Time in different power states
system.mem_ctrls_1.memoryStateTime::REF   21558420000                       # Time in different power states
system.mem_ctrls_1.memoryStateTime::PRE_PDN            0                       # Time in different power states
system.mem_ctrls_1.memoryStateTime::ACT  318609806000                       # Time in different power states
system.mem_ctrls_1.memoryStateTime::ACT_PDN            0                       # Time in different power states
system.cpu.branchPred.lookups                 6543945                       # Number of BP lookups
system.cpu.branchPred.condPredicted           6543945                       # Number of conditional branches predicted
system.cpu.branchPred.condIncorrect              3470                       # Number of conditional branches incorrect
system.cpu.branchPred.BTBLookups              6535561                       # Number of BTB lookups
system.cpu.branchPred.BTBHits                 6527013                       # Number of BTB hits
system.cpu.branchPred.BTBCorrect                    0                       # Number of correct BTB predictions (this stat may not work properly.
system.cpu.branchPred.BTBHitPct             99.869208                       # BTB Hit Percentage
system.cpu.branchPred.BTBMissPct             0.130792                       # BTB Miss Percentage
system.cpu.branchPred.usedRAS                    3769                       # Number of times the RAS was used to get a target.
system.cpu.branchPred.RASInCorrect                227                       # Number of incorrect RAS predictions.
system.cpu_voltage_domain.voltage                   1                       # Voltage in Volts
system.cpu_clk_domain.clock                       500                       # Clock period in ticks
system.cpu.apic_clk_domain.clock                 8000                       # Clock period in ticks
system.cpu.workload.num_syscalls                  108                       # Number of system calls
system.cpu.numCycles                       1291228271                       # number of cpu cycles simulated
system.cpu.numWorkItemsStarted                      0                       # number of work items this cpu started
system.cpu.numWorkItemsCompleted                    0                       # number of work items this cpu completed
system.cpu.committedInsts                    50000000                       # Number of instructions committed
system.cpu.committedOps                      95981252                       # Number of ops (including micro ops) committed
system.cpu.num_int_alu_accesses              95975786                       # Number of integer alu accesses
system.cpu.num_fp_alu_accesses               51833399                       # Number of float alu accesses
system.cpu.num_func_calls                        7602                       # number of times a function call or return occured
system.cpu.num_conditional_control_insts      6532565                       # number of instructions that are conditional controls
system.cpu.num_int_insts                     95975786                       # number of integer instructions
system.cpu.num_fp_insts                      51833399                       # number of float instructions
system.cpu.num_int_register_reads           219093281                       # number of times the integer registers were read
system.cpu.num_int_register_writes           37404609                       # number of times the integer registers were written
system.cpu.num_fp_register_reads             51836935                       # number of times the floating registers were read
system.cpu.num_fp_register_writes                4221                       # number of times the floating registers were written
system.cpu.num_cc_register_reads             34496136                       # number of times the CC registers were read
system.cpu.num_cc_register_writes            29304313                       # number of times the CC registers were written
system.cpu.num_mem_refs                      53378426                       # number of memory refs
system.cpu.num_load_insts                     1350125                       # Number of load instructions
system.cpu.num_store_insts                   52028301                       # Number of store instructions
system.cpu.num_idle_cycles                          0                       # Number of idle cycles
system.cpu.num_busy_cycles                 1291228271                       # Number of busy cycles
system.cpu.not_idle_fraction                        1                       # Percentage of non-idle cycles
system.cpu.idle_fraction                            0                       # Percentage of idle cycles
system.cpu.Branches                           6543945                       # Number of branches fetched
system.cpu.predictedBranches                  6530782                       # Number of branches predicted as taken
system.cpu.BranchMispred                         3470                       # Number of branch mispredictions
system.cpu.numBranchMispreadPercent          0.053026                       # Number of Branch Mispread Percent
system.cpu.op_class::No_OpClass                  1614      0.00%      0.00% # Class of executed instruction
system.cpu.op_class::IntAlu                  42596796     44.38%     44.38% # Class of executed instruction
system.cpu.op_class::IntMult                      725      0.00%     44.38% # Class of executed instruction
system.cpu.op_class::IntDiv                        21      0.00%     44.38% # Class of executed instruction
system.cpu.op_class::FloatAdd                    3670      0.00%     44.39% # Class of executed instruction
system.cpu.op_class::FloatCmp                       0      0.00%     44.39% # Class of executed instruction
system.cpu.op_class::FloatCvt                       0      0.00%     44.39% # Class of executed instruction
system.cpu.op_class::FloatMult                      0      0.00%     44.39% # Class of executed instruction
system.cpu.op_class::FloatDiv                       0      0.00%     44.39% # Class of executed instruction
system.cpu.op_class::FloatSqrt                      0      0.00%     44.39% # Class of executed instruction
system.cpu.op_class::SimdAdd                        0      0.00%     44.39% # Class of executed instruction
system.cpu.op_class::SimdAddAcc                     0      0.00%     44.39% # Class of executed instruction
system.cpu.op_class::SimdAlu                        0      0.00%     44.39% # Class of executed instruction
system.cpu.op_class::SimdCmp                        0      0.00%     44.39% # Class of executed instruction
system.cpu.op_class::SimdCvt                        0      0.00%     44.39% # Class of executed instruction
system.cpu.op_class::SimdMisc                       0      0.00%     44.39% # Class of executed instruction
system.cpu.op_class::SimdMult                       0      0.00%     44.39% # Class of executed instruction
system.cpu.op_class::SimdMultAcc                    0      0.00%     44.39% # Class of executed instruction
system.cpu.op_class::SimdShift                      0      0.00%     44.39% # Class of executed instruction
system.cpu.op_class::SimdShiftAcc                   0      0.00%     44.39% # Class of executed instruction
system.cpu.op_class::SimdSqrt                       0      0.00%     44.39% # Class of executed instruction
system.cpu.op_class::SimdFloatAdd                   0      0.00%     44.39% # Class of executed instruction
system.cpu.op_class::SimdFloatAlu                   0      0.00%     44.39% # Class of executed instruction
system.cpu.op_class::SimdFloatCmp                   0      0.00%     44.39% # Class of executed instruction
system.cpu.op_class::SimdFloatCvt                   0      0.00%     44.39% # Class of executed instruction
system.cpu.op_class::SimdFloatDiv                   0      0.00%     44.39% # Class of executed instruction
system.cpu.op_class::SimdFloatMisc                  0      0.00%     44.39% # Class of executed instruction
system.cpu.op_class::SimdFloatMult                  0      0.00%     44.39% # Class of executed instruction
system.cpu.op_class::SimdFloatMultAcc               0      0.00%     44.39% # Class of executed instruction
system.cpu.op_class::SimdFloatSqrt                  0      0.00%     44.39% # Class of executed instruction
system.cpu.op_class::MemRead                  1350125      1.41%     45.79% # Class of executed instruction
system.cpu.op_class::MemWrite                52028301     54.21%    100.00% # Class of executed instruction
system.cpu.op_class::IprAccess                      0      0.00%    100.00% # Class of executed instruction
system.cpu.op_class::InstPrefetch                   0      0.00%    100.00% # Class of executed instruction
system.cpu.op_class::total                   95981252                       # Class of executed instruction
system.cpu.dcache.tags.replacements           6479855                       # number of replacements
system.cpu.dcache.tags.tagsinuse          2043.058921                       # Cycle average of tags in use
system.cpu.dcache.tags.total_refs            46896529                       # Total number of references to valid blocks.
system.cpu.dcache.tags.sampled_refs           6481903                       # Sample count of references to valid blocks.
system.cpu.dcache.tags.avg_refs              7.234994                       # Average number of references to valid blocks.
system.cpu.dcache.tags.warmup_cycle        7631839500                       # Cycle when the warmup percentage was hit.
system.cpu.dcache.tags.occ_blocks::cpu.data  2043.058921                       # Average occupied blocks per requestor
system.cpu.dcache.tags.occ_percent::cpu.data     0.997587                       # Average percentage of cache occupancy
system.cpu.dcache.tags.occ_percent::total     0.997587                       # Average percentage of cache occupancy
system.cpu.dcache.tags.occ_task_id_blocks::1024         2048                       # Occupied blocks per task id
system.cpu.dcache.tags.age_task_id_blocks_1024::0          100                       # Occupied blocks per task id
system.cpu.dcache.tags.age_task_id_blocks_1024::1          914                       # Occupied blocks per task id
system.cpu.dcache.tags.age_task_id_blocks_1024::2         1034                       # Occupied blocks per task id
system.cpu.dcache.tags.occ_task_id_percent::1024            1                       # Percentage of cache occupancy per task id
system.cpu.dcache.tags.tag_accesses         219995631                       # Number of tag accesses
system.cpu.dcache.tags.data_accesses        219995631                       # Number of data accesses
system.cpu.dcache.ReadReq_hits::cpu.data      1349776                       # number of ReadReq hits
system.cpu.dcache.ReadReq_hits::total         1349776                       # number of ReadReq hits
system.cpu.dcache.WriteReq_hits::cpu.data     45546753                       # number of WriteReq hits
system.cpu.dcache.WriteReq_hits::total       45546753                       # number of WriteReq hits
system.cpu.dcache.demand_hits::cpu.data      46896529                       # number of demand (read+write) hits
system.cpu.dcache.demand_hits::total         46896529                       # number of demand (read+write) hits
system.cpu.dcache.overall_hits::cpu.data     46896529                       # number of overall hits
system.cpu.dcache.overall_hits::total        46896529                       # number of overall hits
system.cpu.dcache.ReadReq_misses::cpu.data          353                       # number of ReadReq misses
system.cpu.dcache.ReadReq_misses::total           353                       # number of ReadReq misses
system.cpu.dcache.WriteReq_misses::cpu.data      6481550                       # number of WriteReq misses
system.cpu.dcache.WriteReq_misses::total      6481550                       # number of WriteReq misses
system.cpu.dcache.demand_misses::cpu.data      6481903                       # number of demand (read+write) misses
system.cpu.dcache.demand_misses::total        6481903                       # number of demand (read+write) misses
system.cpu.dcache.overall_misses::cpu.data      6481903                       # number of overall misses
system.cpu.dcache.overall_misses::total       6481903                       # number of overall misses
system.cpu.dcache.ReadReq_miss_latency::cpu.data     28927000                       # number of ReadReq miss cycles
system.cpu.dcache.ReadReq_miss_latency::total     28927000                       # number of ReadReq miss cycles
system.cpu.dcache.WriteReq_miss_latency::cpu.data 527855978000                       # number of WriteReq miss cycles
system.cpu.dcache.WriteReq_miss_latency::total 527855978000                       # number of WriteReq miss cycles
system.cpu.dcache.demand_miss_latency::cpu.data 527884905000                       # number of demand (read+write) miss cycles
system.cpu.dcache.demand_miss_latency::total 527884905000                       # number of demand (read+write) miss cycles
system.cpu.dcache.overall_miss_latency::cpu.data 527884905000                       # number of overall miss cycles
system.cpu.dcache.overall_miss_latency::total 527884905000                       # number of overall miss cycles
system.cpu.dcache.ReadReq_accesses::cpu.data      1350129                       # number of ReadReq accesses(hits+misses)
system.cpu.dcache.ReadReq_accesses::total      1350129                       # number of ReadReq accesses(hits+misses)
system.cpu.dcache.WriteReq_accesses::cpu.data     52028303                       # number of WriteReq accesses(hits+misses)
system.cpu.dcache.WriteReq_accesses::total     52028303                       # number of WriteReq accesses(hits+misses)
system.cpu.dcache.demand_accesses::cpu.data     53378432                       # number of demand (read+write) accesses
system.cpu.dcache.demand_accesses::total     53378432                       # number of demand (read+write) accesses
system.cpu.dcache.overall_accesses::cpu.data     53378432                       # number of overall (read+write) accesses
system.cpu.dcache.overall_accesses::total     53378432                       # number of overall (read+write) accesses
system.cpu.dcache.ReadReq_miss_rate::cpu.data     0.000261                       # miss rate for ReadReq accesses
system.cpu.dcache.ReadReq_miss_rate::total     0.000261                       # miss rate for ReadReq accesses
system.cpu.dcache.WriteReq_miss_rate::cpu.data     0.124577                       # miss rate for WriteReq accesses
system.cpu.dcache.WriteReq_miss_rate::total     0.124577                       # miss rate for WriteReq accesses
system.cpu.dcache.demand_miss_rate::cpu.data     0.121433                       # miss rate for demand accesses
system.cpu.dcache.demand_miss_rate::total     0.121433                       # miss rate for demand accesses
system.cpu.dcache.overall_miss_rate::cpu.data     0.121433                       # miss rate for overall accesses
system.cpu.dcache.overall_miss_rate::total     0.121433                       # miss rate for overall accesses
system.cpu.dcache.ReadReq_avg_miss_latency::cpu.data 81946.175637                       # average ReadReq miss latency
system.cpu.dcache.ReadReq_avg_miss_latency::total 81946.175637                       # average ReadReq miss latency
system.cpu.dcache.WriteReq_avg_miss_latency::cpu.data 81439.775671                       # average WriteReq miss latency
system.cpu.dcache.WriteReq_avg_miss_latency::total 81439.775671                       # average WriteReq miss latency
system.cpu.dcache.demand_avg_miss_latency::cpu.data 81439.803249                       # average overall miss latency
system.cpu.dcache.demand_avg_miss_latency::total 81439.803249                       # average overall miss latency
system.cpu.dcache.overall_avg_miss_latency::cpu.data 81439.803249                       # average overall miss latency
system.cpu.dcache.overall_avg_miss_latency::total 81439.803249                       # average overall miss latency
system.cpu.dcache.blocked_cycles::no_mshrs            0                       # number of cycles access was blocked
system.cpu.dcache.blocked_cycles::no_targets            0                       # number of cycles access was blocked
system.cpu.dcache.blocked::no_mshrs                 0                       # number of cycles access was blocked
system.cpu.dcache.blocked::no_targets               0                       # number of cycles access was blocked
system.cpu.dcache.avg_blocked_cycles::no_mshrs          nan                       # average number of cycles each access was blocked
system.cpu.dcache.avg_blocked_cycles::no_targets          nan                       # average number of cycles each access was blocked
system.cpu.dcache.fast_writes                       0                       # number of fast writes performed
system.cpu.dcache.cache_copies                      0                       # number of cache copies performed
system.cpu.dcache.writebacks::writebacks      6479592                       # number of writebacks
system.cpu.dcache.writebacks::total           6479592                       # number of writebacks
system.cpu.dcache.ReadReq_mshr_misses::cpu.data          353                       # number of ReadReq MSHR misses
system.cpu.dcache.ReadReq_mshr_misses::total          353                       # number of ReadReq MSHR misses
system.cpu.dcache.WriteReq_mshr_misses::cpu.data      6481550                       # number of WriteReq MSHR misses
system.cpu.dcache.WriteReq_mshr_misses::total      6481550                       # number of WriteReq MSHR misses
system.cpu.dcache.demand_mshr_misses::cpu.data      6481903                       # number of demand (read+write) MSHR misses
system.cpu.dcache.demand_mshr_misses::total      6481903                       # number of demand (read+write) MSHR misses
system.cpu.dcache.overall_mshr_misses::cpu.data      6481903                       # number of overall MSHR misses
system.cpu.dcache.overall_mshr_misses::total      6481903                       # number of overall MSHR misses
system.cpu.dcache.ReadReq_mshr_miss_latency::cpu.data     28574000                       # number of ReadReq MSHR miss cycles
system.cpu.dcache.ReadReq_mshr_miss_latency::total     28574000                       # number of ReadReq MSHR miss cycles
system.cpu.dcache.WriteReq_mshr_miss_latency::cpu.data 521374428000                       # number of WriteReq MSHR miss cycles
system.cpu.dcache.WriteReq_mshr_miss_latency::total 521374428000                       # number of WriteReq MSHR miss cycles
system.cpu.dcache.demand_mshr_miss_latency::cpu.data 521403002000                       # number of demand (read+write) MSHR miss cycles
system.cpu.dcache.demand_mshr_miss_latency::total 521403002000                       # number of demand (read+write) MSHR miss cycles
system.cpu.dcache.overall_mshr_miss_latency::cpu.data 521403002000                       # number of overall MSHR miss cycles
system.cpu.dcache.overall_mshr_miss_latency::total 521403002000                       # number of overall MSHR miss cycles
system.cpu.dcache.ReadReq_mshr_miss_rate::cpu.data     0.000261                       # mshr miss rate for ReadReq accesses
system.cpu.dcache.ReadReq_mshr_miss_rate::total     0.000261                       # mshr miss rate for ReadReq accesses
system.cpu.dcache.WriteReq_mshr_miss_rate::cpu.data     0.124577                       # mshr miss rate for WriteReq accesses
system.cpu.dcache.WriteReq_mshr_miss_rate::total     0.124577                       # mshr miss rate for WriteReq accesses
system.cpu.dcache.demand_mshr_miss_rate::cpu.data     0.121433                       # mshr miss rate for demand accesses
system.cpu.dcache.demand_mshr_miss_rate::total     0.121433                       # mshr miss rate for demand accesses
system.cpu.dcache.overall_mshr_miss_rate::cpu.data     0.121433                       # mshr miss rate for overall accesses
system.cpu.dcache.overall_mshr_miss_rate::total     0.121433                       # mshr miss rate for overall accesses
system.cpu.dcache.ReadReq_avg_mshr_miss_latency::cpu.data 80946.175637                       # average ReadReq mshr miss latency
system.cpu.dcache.ReadReq_avg_mshr_miss_latency::total 80946.175637                       # average ReadReq mshr miss latency
system.cpu.dcache.WriteReq_avg_mshr_miss_latency::cpu.data 80439.775671                       # average WriteReq mshr miss latency
system.cpu.dcache.WriteReq_avg_mshr_miss_latency::total 80439.775671                       # average WriteReq mshr miss latency
system.cpu.dcache.demand_avg_mshr_miss_latency::cpu.data 80439.803249                       # average overall mshr miss latency
system.cpu.dcache.demand_avg_mshr_miss_latency::total 80439.803249                       # average overall mshr miss latency
system.cpu.dcache.overall_avg_mshr_miss_latency::cpu.data 80439.803249                       # average overall mshr miss latency
system.cpu.dcache.overall_avg_mshr_miss_latency::total 80439.803249                       # average overall mshr miss latency
system.cpu.dcache.no_allocate_misses                0                       # Number of misses that were no-allocate
system.cpu.dtb_walker_cache.tags.replacements            0                       # number of replacements
system.cpu.dtb_walker_cache.tags.tagsinuse            0                       # Cycle average of tags in use
system.cpu.dtb_walker_cache.tags.total_refs            0                       # Total number of references to valid blocks.
system.cpu.dtb_walker_cache.tags.sampled_refs            0                       # Sample count of references to valid blocks.
system.cpu.dtb_walker_cache.tags.avg_refs          nan                       # Average number of references to valid blocks.
system.cpu.dtb_walker_cache.tags.warmup_cycle            0                       # Cycle when the warmup percentage was hit.
system.cpu.dtb_walker_cache.tags.tag_accesses            0                       # Number of tag accesses
system.cpu.dtb_walker_cache.tags.data_accesses            0                       # Number of data accesses
system.cpu.dtb_walker_cache.blocked_cycles::no_mshrs            0                       # number of cycles access was blocked
system.cpu.dtb_walker_cache.blocked_cycles::no_targets            0                       # number of cycles access was blocked
system.cpu.dtb_walker_cache.blocked::no_mshrs            0                       # number of cycles access was blocked
system.cpu.dtb_walker_cache.blocked::no_targets            0                       # number of cycles access was blocked
system.cpu.dtb_walker_cache.avg_blocked_cycles::no_mshrs          nan                       # average number of cycles each access was blocked
system.cpu.dtb_walker_cache.avg_blocked_cycles::no_targets          nan                       # average number of cycles each access was blocked
system.cpu.dtb_walker_cache.fast_writes             0                       # number of fast writes performed
system.cpu.dtb_walker_cache.cache_copies            0                       # number of cache copies performed
system.cpu.dtb_walker_cache.no_allocate_misses            0                       # Number of misses that were no-allocate
system.cpu.icache.tags.replacements                75                       # number of replacements
system.cpu.icache.tags.tagsinuse           498.864135                       # Cycle average of tags in use
system.cpu.icache.tags.total_refs            70767730                       # Total number of references to valid blocks.
system.cpu.icache.tags.sampled_refs               805                       # Sample count of references to valid blocks.
system.cpu.icache.tags.avg_refs          87910.223602                       # Average number of references to valid blocks.
system.cpu.icache.tags.warmup_cycle                 0                       # Cycle when the warmup percentage was hit.
system.cpu.icache.tags.occ_blocks::cpu.inst   498.864135                       # Average occupied blocks per requestor
system.cpu.icache.tags.occ_percent::cpu.inst     0.487172                       # Average percentage of cache occupancy
system.cpu.icache.tags.occ_percent::total     0.487172                       # Average percentage of cache occupancy
system.cpu.icache.tags.occ_task_id_blocks::1024          730                       # Occupied blocks per task id
system.cpu.icache.tags.age_task_id_blocks_1024::4          730                       # Occupied blocks per task id
system.cpu.icache.tags.occ_task_id_percent::1024     0.712891                       # Percentage of cache occupancy per task id
system.cpu.icache.tags.tag_accesses         283074945                       # Number of tag accesses
system.cpu.icache.tags.data_accesses        283074945                       # Number of data accesses
system.cpu.icache.ReadReq_hits::cpu.inst     70767730                       # number of ReadReq hits
system.cpu.icache.ReadReq_hits::total        70767730                       # number of ReadReq hits
system.cpu.icache.demand_hits::cpu.inst      70767730                       # number of demand (read+write) hits
system.cpu.icache.demand_hits::total         70767730                       # number of demand (read+write) hits
system.cpu.icache.overall_hits::cpu.inst     70767730                       # number of overall hits
system.cpu.icache.overall_hits::total        70767730                       # number of overall hits
system.cpu.icache.ReadReq_misses::cpu.inst          805                       # number of ReadReq misses
system.cpu.icache.ReadReq_misses::total           805                       # number of ReadReq misses
system.cpu.icache.demand_misses::cpu.inst          805                       # number of demand (read+write) misses
system.cpu.icache.demand_misses::total            805                       # number of demand (read+write) misses
system.cpu.icache.overall_misses::cpu.inst          805                       # number of overall misses
system.cpu.icache.overall_misses::total           805                       # number of overall misses
system.cpu.icache.ReadReq_miss_latency::cpu.inst     65158500                       # number of ReadReq miss cycles
system.cpu.icache.ReadReq_miss_latency::total     65158500                       # number of ReadReq miss cycles
system.cpu.icache.demand_miss_latency::cpu.inst     65158500                       # number of demand (read+write) miss cycles
system.cpu.icache.demand_miss_latency::total     65158500                       # number of demand (read+write) miss cycles
system.cpu.icache.overall_miss_latency::cpu.inst     65158500                       # number of overall miss cycles
system.cpu.icache.overall_miss_latency::total     65158500                       # number of overall miss cycles
system.cpu.icache.ReadReq_accesses::cpu.inst     70768535                       # number of ReadReq accesses(hits+misses)
system.cpu.icache.ReadReq_accesses::total     70768535                       # number of ReadReq accesses(hits+misses)
system.cpu.icache.demand_accesses::cpu.inst     70768535                       # number of demand (read+write) accesses
system.cpu.icache.demand_accesses::total     70768535                       # number of demand (read+write) accesses
system.cpu.icache.overall_accesses::cpu.inst     70768535                       # number of overall (read+write) accesses
system.cpu.icache.overall_accesses::total     70768535                       # number of overall (read+write) accesses
system.cpu.icache.ReadReq_miss_rate::cpu.inst     0.000011                       # miss rate for ReadReq accesses
system.cpu.icache.ReadReq_miss_rate::total     0.000011                       # miss rate for ReadReq accesses
system.cpu.icache.demand_miss_rate::cpu.inst     0.000011                       # miss rate for demand accesses
system.cpu.icache.demand_miss_rate::total     0.000011                       # miss rate for demand accesses
system.cpu.icache.overall_miss_rate::cpu.inst     0.000011                       # miss rate for overall accesses
system.cpu.icache.overall_miss_rate::total     0.000011                       # miss rate for overall accesses
system.cpu.icache.ReadReq_avg_miss_latency::cpu.inst 80942.236025                       # average ReadReq miss latency
system.cpu.icache.ReadReq_avg_miss_latency::total 80942.236025                       # average ReadReq miss latency
system.cpu.icache.demand_avg_miss_latency::cpu.inst 80942.236025                       # average overall miss latency
system.cpu.icache.demand_avg_miss_latency::total 80942.236025                       # average overall miss latency
system.cpu.icache.overall_avg_miss_latency::cpu.inst 80942.236025                       # average overall miss latency
system.cpu.icache.overall_avg_miss_latency::total 80942.236025                       # average overall miss latency
system.cpu.icache.blocked_cycles::no_mshrs            0                       # number of cycles access was blocked
system.cpu.icache.blocked_cycles::no_targets            0                       # number of cycles access was blocked
system.cpu.icache.blocked::no_mshrs                 0                       # number of cycles access was blocked
system.cpu.icache.blocked::no_targets               0                       # number of cycles access was blocked
system.cpu.icache.avg_blocked_cycles::no_mshrs          nan                       # average number of cycles each access was blocked
system.cpu.icache.avg_blocked_cycles::no_targets          nan                       # average number of cycles each access was blocked
system.cpu.icache.fast_writes                       0                       # number of fast writes performed
system.cpu.icache.cache_copies                      0                       # number of cache copies performed
system.cpu.icache.writebacks::writebacks           75                       # number of writebacks
system.cpu.icache.writebacks::total                75                       # number of writebacks
system.cpu.icache.ReadReq_mshr_misses::cpu.inst          805                       # number of ReadReq MSHR misses
system.cpu.icache.ReadReq_mshr_misses::total          805                       # number of ReadReq MSHR misses
system.cpu.icache.demand_mshr_misses::cpu.inst          805                       # number of demand (read+write) MSHR misses
system.cpu.icache.demand_mshr_misses::total          805                       # number of demand (read+write) MSHR misses
system.cpu.icache.overall_mshr_misses::cpu.inst          805                       # number of overall MSHR misses
system.cpu.icache.overall_mshr_misses::total          805                       # number of overall MSHR misses
system.cpu.icache.ReadReq_mshr_miss_latency::cpu.inst     64353500                       # number of ReadReq MSHR miss cycles
system.cpu.icache.ReadReq_mshr_miss_latency::total     64353500                       # number of ReadReq MSHR miss cycles
system.cpu.icache.demand_mshr_miss_latency::cpu.inst     64353500                       # number of demand (read+write) MSHR miss cycles
system.cpu.icache.demand_mshr_miss_latency::total     64353500                       # number of demand (read+write) MSHR miss cycles
system.cpu.icache.overall_mshr_miss_latency::cpu.inst     64353500                       # number of overall MSHR miss cycles
system.cpu.icache.overall_mshr_miss_latency::total     64353500                       # number of overall MSHR miss cycles
system.cpu.icache.ReadReq_mshr_miss_rate::cpu.inst     0.000011                       # mshr miss rate for ReadReq accesses
system.cpu.icache.ReadReq_mshr_miss_rate::total     0.000011                       # mshr miss rate for ReadReq accesses
system.cpu.icache.demand_mshr_miss_rate::cpu.inst     0.000011                       # mshr miss rate for demand accesses
system.cpu.icache.demand_mshr_miss_rate::total     0.000011                       # mshr miss rate for demand accesses
system.cpu.icache.overall_mshr_miss_rate::cpu.inst     0.000011                       # mshr miss rate for overall accesses
system.cpu.icache.overall_mshr_miss_rate::total     0.000011                       # mshr miss rate for overall accesses
system.cpu.icache.ReadReq_avg_mshr_miss_latency::cpu.inst 79942.236025                       # average ReadReq mshr miss latency
system.cpu.icache.ReadReq_avg_mshr_miss_latency::total 79942.236025                       # average ReadReq mshr miss latency
system.cpu.icache.demand_avg_mshr_miss_latency::cpu.inst 79942.236025                       # average overall mshr miss latency
system.cpu.icache.demand_avg_mshr_miss_latency::total 79942.236025                       # average overall mshr miss latency
system.cpu.icache.overall_avg_mshr_miss_latency::cpu.inst 79942.236025                       # average overall mshr miss latency
system.cpu.icache.overall_avg_mshr_miss_latency::total 79942.236025                       # average overall mshr miss latency
system.cpu.icache.no_allocate_misses                0                       # Number of misses that were no-allocate
system.cpu.itb_walker_cache.tags.replacements            0                       # number of replacements
system.cpu.itb_walker_cache.tags.tagsinuse            0                       # Cycle average of tags in use
system.cpu.itb_walker_cache.tags.total_refs            0                       # Total number of references to valid blocks.
system.cpu.itb_walker_cache.tags.sampled_refs            0                       # Sample count of references to valid blocks.
system.cpu.itb_walker_cache.tags.avg_refs          nan                       # Average number of references to valid blocks.
system.cpu.itb_walker_cache.tags.warmup_cycle            0                       # Cycle when the warmup percentage was hit.
system.cpu.itb_walker_cache.tags.tag_accesses            0                       # Number of tag accesses
system.cpu.itb_walker_cache.tags.data_accesses            0                       # Number of data accesses
system.cpu.itb_walker_cache.blocked_cycles::no_mshrs            0                       # number of cycles access was blocked
system.cpu.itb_walker_cache.blocked_cycles::no_targets            0                       # number of cycles access was blocked
system.cpu.itb_walker_cache.blocked::no_mshrs            0                       # number of cycles access was blocked
system.cpu.itb_walker_cache.blocked::no_targets            0                       # number of cycles access was blocked
system.cpu.itb_walker_cache.avg_blocked_cycles::no_mshrs          nan                       # average number of cycles each access was blocked
system.cpu.itb_walker_cache.avg_blocked_cycles::no_targets          nan                       # average number of cycles each access was blocked
system.cpu.itb_walker_cache.fast_writes             0                       # number of fast writes performed
system.cpu.itb_walker_cache.cache_copies            0                       # number of cache copies performed
system.cpu.itb_walker_cache.no_allocate_misses            0                       # Number of misses that were no-allocate
system.l2.tags.replacements                   6449977                       # number of replacements
system.l2.tags.tagsinuse                 30299.688166                       # Cycle average of tags in use
system.l2.tags.total_refs                         390                       # Total number of references to valid blocks.
system.l2.tags.sampled_refs                   6480697                       # Sample count of references to valid blocks.
system.l2.tags.avg_refs                      0.000060                       # Average number of references to valid blocks.
system.l2.tags.warmup_cycle                         0                       # Cycle when the warmup percentage was hit.
system.l2.tags.occ_blocks::writebacks    30290.738620                       # Average occupied blocks per requestor
system.l2.tags.occ_blocks::cpu.inst          6.438090                       # Average occupied blocks per requestor
system.l2.tags.occ_blocks::cpu.data          2.511456                       # Average occupied blocks per requestor
system.l2.tags.occ_percent::writebacks       0.924400                       # Average percentage of cache occupancy
system.l2.tags.occ_percent::cpu.inst         0.000196                       # Average percentage of cache occupancy
system.l2.tags.occ_percent::cpu.data         0.000077                       # Average percentage of cache occupancy
system.l2.tags.occ_percent::total            0.924673                       # Average percentage of cache occupancy
system.l2.tags.occ_task_id_blocks::1024         30720                       # Occupied blocks per task id
system.l2.tags.age_task_id_blocks_1024::0          100                       # Occupied blocks per task id
system.l2.tags.age_task_id_blocks_1024::1          914                       # Occupied blocks per task id
system.l2.tags.age_task_id_blocks_1024::2         9136                       # Occupied blocks per task id
system.l2.tags.age_task_id_blocks_1024::3        20570                       # Occupied blocks per task id
system.l2.tags.occ_task_id_percent::1024     0.937500                       # Percentage of cache occupancy per task id
system.l2.tags.tag_accesses                  38887521                       # Number of tag accesses
system.l2.tags.data_accesses                 38887521                       # Number of data accesses
system.l2.WritebackDirty_hits::writebacks      6479592                       # number of WritebackDirty hits
system.l2.WritebackDirty_hits::total          6479592                       # number of WritebackDirty hits
system.l2.WritebackClean_hits::writebacks           75                       # number of WritebackClean hits
system.l2.WritebackClean_hits::total               75                       # number of WritebackClean hits
system.l2.ReadExReq_hits::cpu.data                 10                       # number of ReadExReq hits
system.l2.ReadExReq_hits::total                    10                       # number of ReadExReq hits
system.l2.ReadCleanReq_hits::cpu.inst               5                       # number of ReadCleanReq hits
system.l2.ReadCleanReq_hits::total                  5                       # number of ReadCleanReq hits
system.l2.ReadSharedReq_hits::cpu.data             15                       # number of ReadSharedReq hits
system.l2.ReadSharedReq_hits::total                15                       # number of ReadSharedReq hits
system.l2.demand_hits::cpu.inst                     5                       # number of demand (read+write) hits
system.l2.demand_hits::cpu.data                    25                       # number of demand (read+write) hits
system.l2.demand_hits::total                       30                       # number of demand (read+write) hits
system.l2.overall_hits::cpu.inst                    5                       # number of overall hits
system.l2.overall_hits::cpu.data                   25                       # number of overall hits
system.l2.overall_hits::total                      30                       # number of overall hits
system.l2.ReadExReq_misses::cpu.data          6481540                       # number of ReadExReq misses
system.l2.ReadExReq_misses::total             6481540                       # number of ReadExReq misses
system.l2.ReadCleanReq_misses::cpu.inst           800                       # number of ReadCleanReq misses
system.l2.ReadCleanReq_misses::total              800                       # number of ReadCleanReq misses
system.l2.ReadSharedReq_misses::cpu.data          338                       # number of ReadSharedReq misses
system.l2.ReadSharedReq_misses::total             338                       # number of ReadSharedReq misses
system.l2.demand_misses::cpu.inst                 800                       # number of demand (read+write) misses
system.l2.demand_misses::cpu.data             6481878                       # number of demand (read+write) misses
system.l2.demand_misses::total                6482678                       # number of demand (read+write) misses
system.l2.overall_misses::cpu.inst                800                       # number of overall misses
system.l2.overall_misses::cpu.data            6481878                       # number of overall misses
system.l2.overall_misses::total               6482678                       # number of overall misses
system.l2.ReadExReq_miss_latency::cpu.data 511651995000                       # number of ReadExReq miss cycles
system.l2.ReadExReq_miss_latency::total  511651995000                       # number of ReadExReq miss cycles
system.l2.ReadCleanReq_miss_latency::cpu.inst     63087000                       # number of ReadCleanReq miss cycles
system.l2.ReadCleanReq_miss_latency::total     63087000                       # number of ReadCleanReq miss cycles
system.l2.ReadSharedReq_miss_latency::cpu.data     27885000                       # number of ReadSharedReq miss cycles
system.l2.ReadSharedReq_miss_latency::total     27885000                       # number of ReadSharedReq miss cycles
system.l2.demand_miss_latency::cpu.inst      63087000                       # number of demand (read+write) miss cycles
system.l2.demand_miss_latency::cpu.data  511679880000                       # number of demand (read+write) miss cycles
system.l2.demand_miss_latency::total     511742967000                       # number of demand (read+write) miss cycles
system.l2.overall_miss_latency::cpu.inst     63087000                       # number of overall miss cycles
system.l2.overall_miss_latency::cpu.data 511679880000                       # number of overall miss cycles
system.l2.overall_miss_latency::total    511742967000                       # number of overall miss cycles
system.l2.WritebackDirty_accesses::writebacks      6479592                       # number of WritebackDirty accesses(hits+misses)
system.l2.WritebackDirty_accesses::total      6479592                       # number of WritebackDirty accesses(hits+misses)
system.l2.WritebackClean_accesses::writebacks           75                       # number of WritebackClean accesses(hits+misses)
system.l2.WritebackClean_accesses::total           75                       # number of WritebackClean accesses(hits+misses)
system.l2.ReadExReq_accesses::cpu.data        6481550                       # number of ReadExReq accesses(hits+misses)
system.l2.ReadExReq_accesses::total           6481550                       # number of ReadExReq accesses(hits+misses)
system.l2.ReadCleanReq_accesses::cpu.inst          805                       # number of ReadCleanReq accesses(hits+misses)
system.l2.ReadCleanReq_accesses::total            805                       # number of ReadCleanReq accesses(hits+misses)
system.l2.ReadSharedReq_accesses::cpu.data          353                       # number of ReadSharedReq accesses(hits+misses)
system.l2.ReadSharedReq_accesses::total           353                       # number of ReadSharedReq accesses(hits+misses)
system.l2.demand_accesses::cpu.inst               805                       # number of demand (read+write) accesses
system.l2.demand_accesses::cpu.data           6481903                       # number of demand (read+write) accesses
system.l2.demand_accesses::total              6482708                       # number of demand (read+write) accesses
system.l2.overall_accesses::cpu.inst              805                       # number of overall (read+write) accesses
system.l2.overall_accesses::cpu.data          6481903                       # number of overall (read+write) accesses
system.l2.overall_accesses::total             6482708                       # number of overall (read+write) accesses
system.l2.ReadExReq_miss_rate::cpu.data      0.999998                       # miss rate for ReadExReq accesses
system.l2.ReadExReq_miss_rate::total         0.999998                       # miss rate for ReadExReq accesses
system.l2.ReadCleanReq_miss_rate::cpu.inst     0.993789                       # miss rate for ReadCleanReq accesses
system.l2.ReadCleanReq_miss_rate::total      0.993789                       # miss rate for ReadCleanReq accesses
system.l2.ReadSharedReq_miss_rate::cpu.data     0.957507                       # miss rate for ReadSharedReq accesses
system.l2.ReadSharedReq_miss_rate::total     0.957507                       # miss rate for ReadSharedReq accesses
system.l2.demand_miss_rate::cpu.inst         0.993789                       # miss rate for demand accesses
system.l2.demand_miss_rate::cpu.data         0.999996                       # miss rate for demand accesses
system.l2.demand_miss_rate::total            0.999995                       # miss rate for demand accesses
system.l2.overall_miss_rate::cpu.inst        0.993789                       # miss rate for overall accesses
system.l2.overall_miss_rate::cpu.data        0.999996                       # miss rate for overall accesses
system.l2.overall_miss_rate::total           0.999995                       # miss rate for overall accesses
system.l2.ReadExReq_avg_miss_latency::cpu.data 78939.880800                       # average ReadExReq miss latency
system.l2.ReadExReq_avg_miss_latency::total 78939.880800                       # average ReadExReq miss latency
system.l2.ReadCleanReq_avg_miss_latency::cpu.inst 78858.750000                       # average ReadCleanReq miss latency
system.l2.ReadCleanReq_avg_miss_latency::total 78858.750000                       # average ReadCleanReq miss latency
system.l2.ReadSharedReq_avg_miss_latency::cpu.data        82500                       # average ReadSharedReq miss latency
system.l2.ReadSharedReq_avg_miss_latency::total        82500                       # average ReadSharedReq miss latency
system.l2.demand_avg_miss_latency::cpu.inst 78858.750000                       # average overall miss latency
system.l2.demand_avg_miss_latency::cpu.data 78940.066444                       # average overall miss latency
system.l2.demand_avg_miss_latency::total 78940.056409                       # average overall miss latency
system.l2.overall_avg_miss_latency::cpu.inst 78858.750000                       # average overall miss latency
system.l2.overall_avg_miss_latency::cpu.data 78940.066444                       # average overall miss latency
system.l2.overall_avg_miss_latency::total 78940.056409                       # average overall miss latency
system.l2.blocked_cycles::no_mshrs                  0                       # number of cycles access was blocked
system.l2.blocked_cycles::no_targets                0                       # number of cycles access was blocked
system.l2.blocked::no_mshrs                         0                       # number of cycles access was blocked
system.l2.blocked::no_targets                       0                       # number of cycles access was blocked
system.l2.avg_blocked_cycles::no_mshrs            nan                       # average number of cycles each access was blocked
system.l2.avg_blocked_cycles::no_targets          nan                       # average number of cycles each access was blocked
system.l2.fast_writes                               0                       # number of fast writes performed
system.l2.cache_copies                              0                       # number of cache copies performed
system.l2.writebacks::writebacks              6448848                       # number of writebacks
system.l2.writebacks::total                   6448848                       # number of writebacks
system.l2.ReadExReq_mshr_misses::cpu.data      6481540                       # number of ReadExReq MSHR misses
system.l2.ReadExReq_mshr_misses::total        6481540                       # number of ReadExReq MSHR misses
system.l2.ReadCleanReq_mshr_misses::cpu.inst          800                       # number of ReadCleanReq MSHR misses
system.l2.ReadCleanReq_mshr_misses::total          800                       # number of ReadCleanReq MSHR misses
system.l2.ReadSharedReq_mshr_misses::cpu.data          338                       # number of ReadSharedReq MSHR misses
system.l2.ReadSharedReq_mshr_misses::total          338                       # number of ReadSharedReq MSHR misses
system.l2.demand_mshr_misses::cpu.inst            800                       # number of demand (read+write) MSHR misses
system.l2.demand_mshr_misses::cpu.data        6481878                       # number of demand (read+write) MSHR misses
system.l2.demand_mshr_misses::total           6482678                       # number of demand (read+write) MSHR misses
system.l2.overall_mshr_misses::cpu.inst           800                       # number of overall MSHR misses
system.l2.overall_mshr_misses::cpu.data       6481878                       # number of overall MSHR misses
system.l2.overall_mshr_misses::total          6482678                       # number of overall MSHR misses
system.l2.ReadExReq_mshr_miss_latency::cpu.data 446836595000                       # number of ReadExReq MSHR miss cycles
system.l2.ReadExReq_mshr_miss_latency::total 446836595000                       # number of ReadExReq MSHR miss cycles
system.l2.ReadCleanReq_mshr_miss_latency::cpu.inst     55087000                       # number of ReadCleanReq MSHR miss cycles
system.l2.ReadCleanReq_mshr_miss_latency::total     55087000                       # number of ReadCleanReq MSHR miss cycles
system.l2.ReadSharedReq_mshr_miss_latency::cpu.data     24505000                       # number of ReadSharedReq MSHR miss cycles
system.l2.ReadSharedReq_mshr_miss_latency::total     24505000                       # number of ReadSharedReq MSHR miss cycles
system.l2.demand_mshr_miss_latency::cpu.inst     55087000                       # number of demand (read+write) MSHR miss cycles
system.l2.demand_mshr_miss_latency::cpu.data 446861100000                       # number of demand (read+write) MSHR miss cycles
system.l2.demand_mshr_miss_latency::total 446916187000                       # number of demand (read+write) MSHR miss cycles
system.l2.overall_mshr_miss_latency::cpu.inst     55087000                       # number of overall MSHR miss cycles
system.l2.overall_mshr_miss_latency::cpu.data 446861100000                       # number of overall MSHR miss cycles
system.l2.overall_mshr_miss_latency::total 446916187000                       # number of overall MSHR miss cycles
system.l2.ReadExReq_mshr_miss_rate::cpu.data     0.999998                       # mshr miss rate for ReadExReq accesses
system.l2.ReadExReq_mshr_miss_rate::total     0.999998                       # mshr miss rate for ReadExReq accesses
system.l2.ReadCleanReq_mshr_miss_rate::cpu.inst     0.993789                       # mshr miss rate for ReadCleanReq accesses
system.l2.ReadCleanReq_mshr_miss_rate::total     0.993789                       # mshr miss rate for ReadCleanReq accesses
system.l2.ReadSharedReq_mshr_miss_rate::cpu.data     0.957507                       # mshr miss rate for ReadSharedReq accesses
system.l2.ReadSharedReq_mshr_miss_rate::total     0.957507                       # mshr miss rate for ReadSharedReq accesses
system.l2.demand_mshr_miss_rate::cpu.inst     0.993789                       # mshr miss rate for demand accesses
system.l2.demand_mshr_miss_rate::cpu.data     0.999996                       # mshr miss rate for demand accesses
system.l2.demand_mshr_miss_rate::total       0.999995                       # mshr miss rate for demand accesses
system.l2.overall_mshr_miss_rate::cpu.inst     0.993789                       # mshr miss rate for overall accesses
system.l2.overall_mshr_miss_rate::cpu.data     0.999996                       # mshr miss rate for overall accesses
system.l2.overall_mshr_miss_rate::total      0.999995                       # mshr miss rate for overall accesses
system.l2.ReadExReq_avg_mshr_miss_latency::cpu.data 68939.880800                       # average ReadExReq mshr miss latency
system.l2.ReadExReq_avg_mshr_miss_latency::total 68939.880800                       # average ReadExReq mshr miss latency
system.l2.ReadCleanReq_avg_mshr_miss_latency::cpu.inst 68858.750000                       # average ReadCleanReq mshr miss latency
system.l2.ReadCleanReq_avg_mshr_miss_latency::total 68858.750000                       # average ReadCleanReq mshr miss latency
system.l2.ReadSharedReq_avg_mshr_miss_latency::cpu.data        72500                       # average ReadSharedReq mshr miss latency
system.l2.ReadSharedReq_avg_mshr_miss_latency::total        72500                       # average ReadSharedReq mshr miss latency
system.l2.demand_avg_mshr_miss_latency::cpu.inst 68858.750000                       # average overall mshr miss latency
system.l2.demand_avg_mshr_miss_latency::cpu.data 68940.066444                       # average overall mshr miss latency
system.l2.demand_avg_mshr_miss_latency::total 68940.056409                       # average overall mshr miss latency
system.l2.overall_avg_mshr_miss_latency::cpu.inst 68858.750000                       # average overall mshr miss latency
system.l2.overall_avg_mshr_miss_latency::cpu.data 68940.066444                       # average overall mshr miss latency
system.l2.overall_avg_mshr_miss_latency::total 68940.056409                       # average overall mshr miss latency
system.l2.no_allocate_misses                        0                       # Number of misses that were no-allocate
system.membus.trans_dist::ReadResp               1138                       # Transaction distribution
system.membus.trans_dist::WritebackDirty      6448848                       # Transaction distribution
system.membus.trans_dist::CleanEvict              332                       # Transaction distribution
system.membus.trans_dist::ReadExReq           6481540                       # Transaction distribution
system.membus.trans_dist::ReadExResp          6481540                       # Transaction distribution
system.membus.trans_dist::ReadSharedReq          1138                       # Transaction distribution
system.membus.pkt_count_system.l2.mem_side::system.mem_ctrls.port     19414536                       # Packet count per connected master and slave (bytes)
system.membus.pkt_count_system.l2.mem_side::total     19414536                       # Packet count per connected master and slave (bytes)
system.membus.pkt_count::total               19414536                       # Packet count per connected master and slave (bytes)
system.membus.pkt_size_system.l2.mem_side::system.mem_ctrls.port    827617664                       # Cumulative packet size per connected master and slave (bytes)
system.membus.pkt_size_system.l2.mem_side::total    827617664                       # Cumulative packet size per connected master and slave (bytes)
system.membus.pkt_size::total               827617664                       # Cumulative packet size per connected master and slave (bytes)
system.membus.snoops                                0                       # Total snoops (count)
system.membus.snoop_fanout::samples          12931858                       # Request fanout histogram
system.membus.snoop_fanout::mean                    0                       # Request fanout histogram
system.membus.snoop_fanout::stdev                   0                       # Request fanout histogram
system.membus.snoop_fanout::underflows              0      0.00%      0.00% # Request fanout histogram
system.membus.snoop_fanout::0                12931858    100.00%    100.00% # Request fanout histogram
system.membus.snoop_fanout::1                       0      0.00%    100.00% # Request fanout histogram
system.membus.snoop_fanout::overflows               0      0.00%    100.00% # Request fanout histogram
system.membus.snoop_fanout::min_value               0                       # Request fanout histogram
system.membus.snoop_fanout::max_value               0                       # Request fanout histogram
system.membus.snoop_fanout::total            12931858                       # Request fanout histogram
system.membus.reqLayer2.occupancy         38727259500                       # Layer occupancy (ticks)
system.membus.reqLayer2.utilization               6.0                       # Layer utilization (%)
system.membus.respLayer1.occupancy        34098127000                       # Layer occupancy (ticks)
system.membus.respLayer1.utilization              5.3                       # Layer utilization (%)
system.tol2bus.snoop_filter.tot_requests     12962638                       # Total number of requests made to the snoop filter.
system.tol2bus.snoop_filter.hit_single_requests      6479930                       # Number of requests hitting in the snoop filter with a single holder of the requested data.
system.tol2bus.snoop_filter.hit_multi_requests            1                       # Number of requests hitting in the snoop filter with multiple (>1) holders of the requested data.
system.tol2bus.snoop_filter.tot_snoops            797                       # Total number of snoops made to the snoop filter.
system.tol2bus.snoop_filter.hit_single_snoops          797                       # Number of snoops hitting in the snoop filter with a single holder of the requested data.
system.tol2bus.snoop_filter.hit_multi_snoops            0                       # Number of snoops hitting in the snoop filter with multiple (>1) holders of the requested data.
system.tol2bus.trans_dist::ReadResp              1158                       # Transaction distribution
system.tol2bus.trans_dist::WritebackDirty     12928440                       # Transaction distribution
system.tol2bus.trans_dist::WritebackClean           75                       # Transaction distribution
system.tol2bus.trans_dist::CleanEvict            1391                       # Transaction distribution
system.tol2bus.trans_dist::ReadExReq          6481550                       # Transaction distribution
system.tol2bus.trans_dist::ReadExResp         6481550                       # Transaction distribution
system.tol2bus.trans_dist::ReadCleanReq           805                       # Transaction distribution
system.tol2bus.trans_dist::ReadSharedReq          353                       # Transaction distribution
system.tol2bus.pkt_count_system.cpu.icache.mem_side::system.l2.cpu_side         1685                       # Packet count per connected master and slave (bytes)
system.tol2bus.pkt_count_system.cpu.dcache.mem_side::system.l2.cpu_side     19443660                       # Packet count per connected master and slave (bytes)
system.tol2bus.pkt_count::total              19445345                       # Packet count per connected master and slave (bytes)
system.tol2bus.pkt_size_system.cpu.icache.mem_side::system.l2.cpu_side        56320                       # Cumulative packet size per connected master and slave (bytes)
system.tol2bus.pkt_size_system.cpu.dcache.mem_side::system.l2.cpu_side    829535680                       # Cumulative packet size per connected master and slave (bytes)
system.tol2bus.pkt_size::total              829592000                       # Cumulative packet size per connected master and slave (bytes)
system.tol2bus.snoops                         6449977                       # Total snoops (count)
system.tol2bus.snoop_fanout::samples         12932685                       # Request fanout histogram
system.tol2bus.snoop_fanout::mean            0.000062                       # Request fanout histogram
system.tol2bus.snoop_fanout::stdev           0.007855                       # Request fanout histogram
system.tol2bus.snoop_fanout::underflows             0      0.00%      0.00% # Request fanout histogram
system.tol2bus.snoop_fanout::0               12931887     99.99%     99.99% # Request fanout histogram
system.tol2bus.snoop_fanout::1                    798      0.01%    100.00% # Request fanout histogram
system.tol2bus.snoop_fanout::2                      0      0.00%    100.00% # Request fanout histogram
system.tol2bus.snoop_fanout::3                      0      0.00%    100.00% # Request fanout histogram
system.tol2bus.snoop_fanout::4                      0      0.00%    100.00% # Request fanout histogram
system.tol2bus.snoop_fanout::overflows              0      0.00%    100.00% # Request fanout histogram
system.tol2bus.snoop_fanout::min_value              0                       # Request fanout histogram
system.tol2bus.snoop_fanout::max_value              1                       # Request fanout histogram
system.tol2bus.snoop_fanout::total           12932685                       # Request fanout histogram
system.tol2bus.reqLayer0.occupancy        12960986000                       # Layer occupancy (ticks)
system.tol2bus.reqLayer0.utilization              2.0                       # Layer utilization (%)
system.tol2bus.respLayer0.occupancy           1207500                       # Layer occupancy (ticks)
system.tol2bus.respLayer0.utilization             0.0                       # Layer utilization (%)
system.tol2bus.respLayer1.occupancy        9722854500                       # Layer occupancy (ticks)
system.tol2bus.respLayer1.utilization             1.5                       # Layer utilization (%)

---------- End Simulation Statistics   ----------
