
---------- Begin Simulation Statistics ----------
sim_seconds                                  0.096327                       # Number of seconds simulated
sim_ticks                                 96327017500                       # Number of ticks simulated
final_tick                                96327017500                       # Number of ticks from beginning of simulation (restored from checkpoints and never reset)
sim_freq                                 1000000000000                       # Frequency of simulated ticks
host_inst_rate                                 521391                       # Simulator instruction rate (inst/s)
host_op_rate                                   677958                       # Simulator op (including micro ops) rate (op/s)
host_tick_rate                             1004479672                       # Simulator tick rate (ticks/s)
host_mem_usage                                 855540                       # Number of bytes of host memory used
host_seconds                                    95.91                       # Real time elapsed on the host
sim_insts                                    50000001                       # Number of instructions simulated
sim_ops                                      65014465                       # Number of ops (including micro ops) simulated
system.voltage_domain.voltage                       1                       # Voltage in Volts
system.clk_domain.clock                          1000                       # Clock period in ticks
system.mem_ctrls.bytes_read::cpu.inst           72352                       # Number of bytes read from this memory
system.mem_ctrls.bytes_read::cpu.data          232576                       # Number of bytes read from this memory
system.mem_ctrls.bytes_read::total             304928                       # Number of bytes read from this memory
system.mem_ctrls.bytes_inst_read::cpu.inst        72352                       # Number of instructions bytes read from this memory
system.mem_ctrls.bytes_inst_read::total         72352                       # Number of instructions bytes read from this memory
system.mem_ctrls.num_reads::cpu.inst             2261                       # Number of read requests responded to by this memory
system.mem_ctrls.num_reads::cpu.data             7268                       # Number of read requests responded to by this memory
system.mem_ctrls.num_reads::total                9529                       # Number of read requests responded to by this memory
system.mem_ctrls.bw_read::cpu.inst             751108                       # Total read bandwidth from this memory (bytes/s)
system.mem_ctrls.bw_read::cpu.data            2414442                       # Total read bandwidth from this memory (bytes/s)
system.mem_ctrls.bw_read::total               3165550                       # Total read bandwidth from this memory (bytes/s)
system.mem_ctrls.bw_inst_read::cpu.inst        751108                       # Instruction read bandwidth from this memory (bytes/s)
system.mem_ctrls.bw_inst_read::total           751108                       # Instruction read bandwidth from this memory (bytes/s)
system.mem_ctrls.bw_total::cpu.inst            751108                       # Total bandwidth to/from this memory (bytes/s)
system.mem_ctrls.bw_total::cpu.data           2414442                       # Total bandwidth to/from this memory (bytes/s)
system.mem_ctrls.bw_total::total              3165550                       # Total bandwidth to/from this memory (bytes/s)
system.mem_ctrls.readReqs                        9529                       # Number of read requests accepted
system.mem_ctrls.writeReqs                          0                       # Number of write requests accepted
system.mem_ctrls.readBursts                      9529                       # Number of DRAM read bursts, including those serviced by the write queue
system.mem_ctrls.writeBursts                        0                       # Number of DRAM write bursts, including those merged in the write queue
system.mem_ctrls.bytesReadDRAM                 609856                       # Total number of bytes read from DRAM
system.mem_ctrls.bytesReadWrQ                       0                       # Total number of bytes read from write queue
system.mem_ctrls.bytesWritten                       0                       # Total number of bytes written to DRAM
system.mem_ctrls.bytesReadSys                  304928                       # Total read bytes from the system interface side
system.mem_ctrls.bytesWrittenSys                    0                       # Total written bytes from the system interface side
system.mem_ctrls.servicedByWrQ                      0                       # Number of DRAM read bursts serviced by the write queue
system.mem_ctrls.mergedWrBursts                     0                       # Number of DRAM write bursts merged with an existing one
system.mem_ctrls.neitherReadNorWriteReqs            0                       # Number of requests that are neither read nor write
system.mem_ctrls.perBankRdBursts::0               500                       # Per bank write bursts
system.mem_ctrls.perBankRdBursts::1               418                       # Per bank write bursts
system.mem_ctrls.perBankRdBursts::2               563                       # Per bank write bursts
system.mem_ctrls.perBankRdBursts::3               354                       # Per bank write bursts
system.mem_ctrls.perBankRdBursts::4               633                       # Per bank write bursts
system.mem_ctrls.perBankRdBursts::5               511                       # Per bank write bursts
system.mem_ctrls.perBankRdBursts::6               405                       # Per bank write bursts
system.mem_ctrls.perBankRdBursts::7               527                       # Per bank write bursts
system.mem_ctrls.perBankRdBursts::8               667                       # Per bank write bursts
system.mem_ctrls.perBankRdBursts::9               711                       # Per bank write bursts
system.mem_ctrls.perBankRdBursts::10              821                       # Per bank write bursts
system.mem_ctrls.perBankRdBursts::11              880                       # Per bank write bursts
system.mem_ctrls.perBankRdBursts::12              693                       # Per bank write bursts
system.mem_ctrls.perBankRdBursts::13              628                       # Per bank write bursts
system.mem_ctrls.perBankRdBursts::14              596                       # Per bank write bursts
system.mem_ctrls.perBankRdBursts::15              622                       # Per bank write bursts
system.mem_ctrls.perBankWrBursts::0                 0                       # Per bank write bursts
system.mem_ctrls.perBankWrBursts::1                 0                       # Per bank write bursts
system.mem_ctrls.perBankWrBursts::2                 0                       # Per bank write bursts
system.mem_ctrls.perBankWrBursts::3                 0                       # Per bank write bursts
system.mem_ctrls.perBankWrBursts::4                 0                       # Per bank write bursts
system.mem_ctrls.perBankWrBursts::5                 0                       # Per bank write bursts
system.mem_ctrls.perBankWrBursts::6                 0                       # Per bank write bursts
system.mem_ctrls.perBankWrBursts::7                 0                       # Per bank write bursts
system.mem_ctrls.perBankWrBursts::8                 0                       # Per bank write bursts
system.mem_ctrls.perBankWrBursts::9                 0                       # Per bank write bursts
system.mem_ctrls.perBankWrBursts::10                0                       # Per bank write bursts
system.mem_ctrls.perBankWrBursts::11                0                       # Per bank write bursts
system.mem_ctrls.perBankWrBursts::12                0                       # Per bank write bursts
system.mem_ctrls.perBankWrBursts::13                0                       # Per bank write bursts
system.mem_ctrls.perBankWrBursts::14                0                       # Per bank write bursts
system.mem_ctrls.perBankWrBursts::15                0                       # Per bank write bursts
system.mem_ctrls.numRdRetry                         0                       # Number of times read queue was full causing retry
system.mem_ctrls.numWrRetry                         0                       # Number of times write queue was full causing retry
system.mem_ctrls.totGap                   93691220500                       # Total gap between requests
system.mem_ctrls.readPktSize::0                     0                       # Read request sizes (log2)
system.mem_ctrls.readPktSize::1                     0                       # Read request sizes (log2)
system.mem_ctrls.readPktSize::2                     0                       # Read request sizes (log2)
system.mem_ctrls.readPktSize::3                     0                       # Read request sizes (log2)
system.mem_ctrls.readPktSize::4                     0                       # Read request sizes (log2)
system.mem_ctrls.readPktSize::5                  9529                       # Read request sizes (log2)
system.mem_ctrls.readPktSize::6                     0                       # Read request sizes (log2)
system.mem_ctrls.writePktSize::0                    0                       # Write request sizes (log2)
system.mem_ctrls.writePktSize::1                    0                       # Write request sizes (log2)
system.mem_ctrls.writePktSize::2                    0                       # Write request sizes (log2)
system.mem_ctrls.writePktSize::3                    0                       # Write request sizes (log2)
system.mem_ctrls.writePktSize::4                    0                       # Write request sizes (log2)
system.mem_ctrls.writePktSize::5                    0                       # Write request sizes (log2)
system.mem_ctrls.writePktSize::6                    0                       # Write request sizes (log2)
system.mem_ctrls.rdQLenPdf::0                    9216                       # What read queue length does an incoming req see
system.mem_ctrls.rdQLenPdf::1                     169                       # What read queue length does an incoming req see
system.mem_ctrls.rdQLenPdf::2                     143                       # What read queue length does an incoming req see
system.mem_ctrls.rdQLenPdf::3                       1                       # What read queue length does an incoming req see
system.mem_ctrls.rdQLenPdf::4                       0                       # What read queue length does an incoming req see
system.mem_ctrls.rdQLenPdf::5                       0                       # What read queue length does an incoming req see
system.mem_ctrls.rdQLenPdf::6                       0                       # What read queue length does an incoming req see
system.mem_ctrls.rdQLenPdf::7                       0                       # What read queue length does an incoming req see
system.mem_ctrls.rdQLenPdf::8                       0                       # What read queue length does an incoming req see
system.mem_ctrls.rdQLenPdf::9                       0                       # What read queue length does an incoming req see
system.mem_ctrls.rdQLenPdf::10                      0                       # What read queue length does an incoming req see
system.mem_ctrls.rdQLenPdf::11                      0                       # What read queue length does an incoming req see
system.mem_ctrls.rdQLenPdf::12                      0                       # What read queue length does an incoming req see
system.mem_ctrls.rdQLenPdf::13                      0                       # What read queue length does an incoming req see
system.mem_ctrls.rdQLenPdf::14                      0                       # What read queue length does an incoming req see
system.mem_ctrls.rdQLenPdf::15                      0                       # What read queue length does an incoming req see
system.mem_ctrls.rdQLenPdf::16                      0                       # What read queue length does an incoming req see
system.mem_ctrls.rdQLenPdf::17                      0                       # What read queue length does an incoming req see
system.mem_ctrls.rdQLenPdf::18                      0                       # What read queue length does an incoming req see
system.mem_ctrls.rdQLenPdf::19                      0                       # What read queue length does an incoming req see
system.mem_ctrls.rdQLenPdf::20                      0                       # What read queue length does an incoming req see
system.mem_ctrls.rdQLenPdf::21                      0                       # What read queue length does an incoming req see
system.mem_ctrls.rdQLenPdf::22                      0                       # What read queue length does an incoming req see
system.mem_ctrls.rdQLenPdf::23                      0                       # What read queue length does an incoming req see
system.mem_ctrls.rdQLenPdf::24                      0                       # What read queue length does an incoming req see
system.mem_ctrls.rdQLenPdf::25                      0                       # What read queue length does an incoming req see
system.mem_ctrls.rdQLenPdf::26                      0                       # What read queue length does an incoming req see
system.mem_ctrls.rdQLenPdf::27                      0                       # What read queue length does an incoming req see
system.mem_ctrls.rdQLenPdf::28                      0                       # What read queue length does an incoming req see
system.mem_ctrls.rdQLenPdf::29                      0                       # What read queue length does an incoming req see
system.mem_ctrls.rdQLenPdf::30                      0                       # What read queue length does an incoming req see
system.mem_ctrls.rdQLenPdf::31                      0                       # What read queue length does an incoming req see
system.mem_ctrls.wrQLenPdf::0                       0                       # What write queue length does an incoming req see
system.mem_ctrls.wrQLenPdf::1                       0                       # What write queue length does an incoming req see
system.mem_ctrls.wrQLenPdf::2                       0                       # What write queue length does an incoming req see
system.mem_ctrls.wrQLenPdf::3                       0                       # What write queue length does an incoming req see
system.mem_ctrls.wrQLenPdf::4                       0                       # What write queue length does an incoming req see
system.mem_ctrls.wrQLenPdf::5                       0                       # What write queue length does an incoming req see
system.mem_ctrls.wrQLenPdf::6                       0                       # What write queue length does an incoming req see
system.mem_ctrls.wrQLenPdf::7                       0                       # What write queue length does an incoming req see
system.mem_ctrls.wrQLenPdf::8                       0                       # What write queue length does an incoming req see
system.mem_ctrls.wrQLenPdf::9                       0                       # What write queue length does an incoming req see
system.mem_ctrls.wrQLenPdf::10                      0                       # What write queue length does an incoming req see
system.mem_ctrls.wrQLenPdf::11                      0                       # What write queue length does an incoming req see
system.mem_ctrls.wrQLenPdf::12                      0                       # What write queue length does an incoming req see
system.mem_ctrls.wrQLenPdf::13                      0                       # What write queue length does an incoming req see
system.mem_ctrls.wrQLenPdf::14                      0                       # What write queue length does an incoming req see
system.mem_ctrls.wrQLenPdf::15                      0                       # What write queue length does an incoming req see
system.mem_ctrls.wrQLenPdf::16                      0                       # What write queue length does an incoming req see
system.mem_ctrls.wrQLenPdf::17                      0                       # What write queue length does an incoming req see
system.mem_ctrls.wrQLenPdf::18                      0                       # What write queue length does an incoming req see
system.mem_ctrls.wrQLenPdf::19                      0                       # What write queue length does an incoming req see
system.mem_ctrls.wrQLenPdf::20                      0                       # What write queue length does an incoming req see
system.mem_ctrls.wrQLenPdf::21                      0                       # What write queue length does an incoming req see
system.mem_ctrls.wrQLenPdf::22                      0                       # What write queue length does an incoming req see
system.mem_ctrls.wrQLenPdf::23                      0                       # What write queue length does an incoming req see
system.mem_ctrls.wrQLenPdf::24                      0                       # What write queue length does an incoming req see
system.mem_ctrls.wrQLenPdf::25                      0                       # What write queue length does an incoming req see
system.mem_ctrls.wrQLenPdf::26                      0                       # What write queue length does an incoming req see
system.mem_ctrls.wrQLenPdf::27                      0                       # What write queue length does an incoming req see
system.mem_ctrls.wrQLenPdf::28                      0                       # What write queue length does an incoming req see
system.mem_ctrls.wrQLenPdf::29                      0                       # What write queue length does an incoming req see
system.mem_ctrls.wrQLenPdf::30                      0                       # What write queue length does an incoming req see
system.mem_ctrls.wrQLenPdf::31                      0                       # What write queue length does an incoming req see
system.mem_ctrls.wrQLenPdf::32                      0                       # What write queue length does an incoming req see
system.mem_ctrls.wrQLenPdf::33                      0                       # What write queue length does an incoming req see
system.mem_ctrls.wrQLenPdf::34                      0                       # What write queue length does an incoming req see
system.mem_ctrls.wrQLenPdf::35                      0                       # What write queue length does an incoming req see
system.mem_ctrls.wrQLenPdf::36                      0                       # What write queue length does an incoming req see
system.mem_ctrls.wrQLenPdf::37                      0                       # What write queue length does an incoming req see
system.mem_ctrls.wrQLenPdf::38                      0                       # What write queue length does an incoming req see
system.mem_ctrls.wrQLenPdf::39                      0                       # What write queue length does an incoming req see
system.mem_ctrls.wrQLenPdf::40                      0                       # What write queue length does an incoming req see
system.mem_ctrls.wrQLenPdf::41                      0                       # What write queue length does an incoming req see
system.mem_ctrls.wrQLenPdf::42                      0                       # What write queue length does an incoming req see
system.mem_ctrls.wrQLenPdf::43                      0                       # What write queue length does an incoming req see
system.mem_ctrls.wrQLenPdf::44                      0                       # What write queue length does an incoming req see
system.mem_ctrls.wrQLenPdf::45                      0                       # What write queue length does an incoming req see
system.mem_ctrls.wrQLenPdf::46                      0                       # What write queue length does an incoming req see
system.mem_ctrls.wrQLenPdf::47                      0                       # What write queue length does an incoming req see
system.mem_ctrls.wrQLenPdf::48                      0                       # What write queue length does an incoming req see
system.mem_ctrls.wrQLenPdf::49                      0                       # What write queue length does an incoming req see
system.mem_ctrls.wrQLenPdf::50                      0                       # What write queue length does an incoming req see
system.mem_ctrls.wrQLenPdf::51                      0                       # What write queue length does an incoming req see
system.mem_ctrls.wrQLenPdf::52                      0                       # What write queue length does an incoming req see
system.mem_ctrls.wrQLenPdf::53                      0                       # What write queue length does an incoming req see
system.mem_ctrls.wrQLenPdf::54                      0                       # What write queue length does an incoming req see
system.mem_ctrls.wrQLenPdf::55                      0                       # What write queue length does an incoming req see
system.mem_ctrls.wrQLenPdf::56                      0                       # What write queue length does an incoming req see
system.mem_ctrls.wrQLenPdf::57                      0                       # What write queue length does an incoming req see
system.mem_ctrls.wrQLenPdf::58                      0                       # What write queue length does an incoming req see
system.mem_ctrls.wrQLenPdf::59                      0                       # What write queue length does an incoming req see
system.mem_ctrls.wrQLenPdf::60                      0                       # What write queue length does an incoming req see
system.mem_ctrls.wrQLenPdf::61                      0                       # What write queue length does an incoming req see
system.mem_ctrls.wrQLenPdf::62                      0                       # What write queue length does an incoming req see
system.mem_ctrls.wrQLenPdf::63                      0                       # What write queue length does an incoming req see
system.mem_ctrls.bytesPerActivate::samples         2683                       # Bytes accessed per row activation
system.mem_ctrls.bytesPerActivate::mean    227.303764                       # Bytes accessed per row activation
system.mem_ctrls.bytesPerActivate::gmean   150.627754                       # Bytes accessed per row activation
system.mem_ctrls.bytesPerActivate::stdev   269.348059                       # Bytes accessed per row activation
system.mem_ctrls.bytesPerActivate::0-127          664     24.75%     24.75% # Bytes accessed per row activation
system.mem_ctrls.bytesPerActivate::128-255         1453     54.16%     78.90% # Bytes accessed per row activation
system.mem_ctrls.bytesPerActivate::256-383          150      5.59%     84.49% # Bytes accessed per row activation
system.mem_ctrls.bytesPerActivate::384-511           84      3.13%     87.63% # Bytes accessed per row activation
system.mem_ctrls.bytesPerActivate::512-639           45      1.68%     89.30% # Bytes accessed per row activation
system.mem_ctrls.bytesPerActivate::640-767           38      1.42%     90.72% # Bytes accessed per row activation
system.mem_ctrls.bytesPerActivate::768-895           20      0.75%     91.46% # Bytes accessed per row activation
system.mem_ctrls.bytesPerActivate::896-1023           26      0.97%     92.43% # Bytes accessed per row activation
system.mem_ctrls.bytesPerActivate::1024-1151          203      7.57%    100.00% # Bytes accessed per row activation
system.mem_ctrls.bytesPerActivate::total         2683                       # Bytes accessed per row activation
system.mem_ctrls.totQLat                     74129500                       # Total ticks spent queuing
system.mem_ctrls.totMemAccLat               252798250                       # Total ticks spent from burst creation until serviced by the DRAM
system.mem_ctrls.totBusLat                   47645000                       # Total ticks spent in databus transfers
system.mem_ctrls.avgQLat                      7779.36                       # Average queueing delay per DRAM burst
system.mem_ctrls.avgBusLat                    5000.00                       # Average bus latency per DRAM burst
system.mem_ctrls.avgMemAccLat                26529.36                       # Average memory access latency per DRAM burst
system.mem_ctrls.avgRdBW                         6.33                       # Average DRAM read bandwidth in MiByte/s
system.mem_ctrls.avgWrBW                         0.00                       # Average achieved write bandwidth in MiByte/s
system.mem_ctrls.avgRdBWSys                      3.17                       # Average system read bandwidth in MiByte/s
system.mem_ctrls.avgWrBWSys                      0.00                       # Average system write bandwidth in MiByte/s
system.mem_ctrls.peakBW                      12800.00                       # Theoretical peak bandwidth in MiByte/s
system.mem_ctrls.busUtil                         0.05                       # Data bus utilization in percentage
system.mem_ctrls.busUtilRead                     0.05                       # Data bus utilization in percentage for reads
system.mem_ctrls.busUtilWrite                    0.00                       # Data bus utilization in percentage for writes
system.mem_ctrls.avgRdQLen                       1.00                       # Average read queue length when enqueuing
system.mem_ctrls.avgWrQLen                       0.00                       # Average write queue length when enqueuing
system.mem_ctrls.readRowHits                     6846                       # Number of row buffer hits during reads
system.mem_ctrls.writeRowHits                       0                       # Number of row buffer hits during writes
system.mem_ctrls.readRowHitRate                 71.84                       # Row buffer hit rate for reads
system.mem_ctrls.writeRowHitRate                  nan                       # Row buffer hit rate for writes
system.mem_ctrls.avgGap                    9832219.59                       # Average gap between requests
system.mem_ctrls.pageHitRate                    71.84                       # Row buffer hit rate, read and write combined
system.mem_ctrls_0.actEnergy                  9177840                       # Energy for activate commands per rank (pJ)
system.mem_ctrls_0.preEnergy                  5007750                       # Energy for precharge commands per rank (pJ)
system.mem_ctrls_0.readEnergy                30505800                       # Energy for read commands per rank (pJ)
system.mem_ctrls_0.writeEnergy                      0                       # Energy for write commands per rank (pJ)
system.mem_ctrls_0.refreshEnergy           6291395760                       # Energy for refresh commands per rank (pJ)
system.mem_ctrls_0.actBackEnergy           4430420190                       # Energy for active background per rank (pJ)
system.mem_ctrls_0.preBackEnergy          53908033500                       # Energy for precharge background per rank (pJ)
system.mem_ctrls_0.totalEnergy            64674540840                       # Total energy per rank (pJ)
system.mem_ctrls_0.averagePower            671.427451                       # Core power per rank (mW)
system.mem_ctrls_0.memoryStateTime::IDLE  89667256000                       # Time in different power states
system.mem_ctrls_0.memoryStateTime::REF    3216460000                       # Time in different power states
system.mem_ctrls_0.memoryStateTime::PRE_PDN            0                       # Time in different power states
system.mem_ctrls_0.memoryStateTime::ACT    3440242750                       # Time in different power states
system.mem_ctrls_0.memoryStateTime::ACT_PDN            0                       # Time in different power states
system.mem_ctrls_1.actEnergy                 11105640                       # Energy for activate commands per rank (pJ)
system.mem_ctrls_1.preEnergy                  6059625                       # Energy for precharge commands per rank (pJ)
system.mem_ctrls_1.readEnergy                43820400                       # Energy for read commands per rank (pJ)
system.mem_ctrls_1.writeEnergy                      0                       # Energy for write commands per rank (pJ)
system.mem_ctrls_1.refreshEnergy           6291395760                       # Energy for refresh commands per rank (pJ)
system.mem_ctrls_1.actBackEnergy           4685001570                       # Energy for active background per rank (pJ)
system.mem_ctrls_1.preBackEnergy          53684716500                       # Energy for precharge background per rank (pJ)
system.mem_ctrls_1.totalEnergy            64722099495                       # Total energy per rank (pJ)
system.mem_ctrls_1.averagePower            671.921187                       # Core power per rank (mW)
system.mem_ctrls_1.memoryStateTime::IDLE  89294704000                       # Time in different power states
system.mem_ctrls_1.memoryStateTime::REF    3216460000                       # Time in different power states
system.mem_ctrls_1.memoryStateTime::PRE_PDN            0                       # Time in different power states
system.mem_ctrls_1.memoryStateTime::ACT    3812794750                       # Time in different power states
system.mem_ctrls_1.memoryStateTime::ACT_PDN            0                       # Time in different power states
system.cpu.branchPred.lookups                 2859327                       # Number of BP lookups
system.cpu.branchPred.condPredicted           2859327                       # Number of conditional branches predicted
system.cpu.branchPred.condIncorrect            273192                       # Number of conditional branches incorrect
system.cpu.branchPred.BTBLookups              2055348                       # Number of BTB lookups
system.cpu.branchPred.BTBHits                 2033332                       # Number of BTB hits
system.cpu.branchPred.BTBCorrect                    0                       # Number of correct BTB predictions (this stat may not work properly.
system.cpu.branchPred.BTBHitPct             98.928843                       # BTB Hit Percentage
system.cpu.branchPred.BTBMissPct             1.071157                       # BTB Miss Percentage
system.cpu.branchPred.usedRAS                   82194                       # Number of times the RAS was used to get a target.
system.cpu.branchPred.RASInCorrect                827                       # Number of incorrect RAS predictions.
system.cpu_voltage_domain.voltage                   1                       # Voltage in Volts
system.cpu_clk_domain.clock                       500                       # Clock period in ticks
system.cpu.apic_clk_domain.clock                 8000                       # Clock period in ticks
system.cpu.workload.num_syscalls                   34                       # Number of system calls
system.cpu.numCycles                        192654035                       # number of cpu cycles simulated
system.cpu.numWorkItemsStarted                      0                       # number of work items this cpu started
system.cpu.numWorkItemsCompleted                    0                       # number of work items this cpu completed
system.cpu.committedInsts                    50000001                       # Number of instructions committed
system.cpu.committedOps                      65014465                       # Number of ops (including micro ops) committed
system.cpu.num_int_alu_accesses              62933457                       # Number of integer alu accesses
system.cpu.num_fp_alu_accesses                2948954                       # Number of float alu accesses
system.cpu.num_func_calls                      164791                       # number of times a function call or return occured
system.cpu.num_conditional_control_insts      2606507                       # number of instructions that are conditional controls
system.cpu.num_int_insts                     62933457                       # number of integer instructions
system.cpu.num_fp_insts                       2948954                       # number of float instructions
system.cpu.num_int_register_reads           147292995                       # number of times the integer registers were read
system.cpu.num_int_register_writes           57136355                       # number of times the integer registers were written
system.cpu.num_fp_register_reads              2505840                       # number of times the floating registers were read
system.cpu.num_fp_register_writes             2527243                       # number of times the floating registers were written
system.cpu.num_cc_register_reads             19215973                       # number of times the CC registers were read
system.cpu.num_cc_register_writes            26132447                       # number of times the CC registers were written
system.cpu.num_mem_refs                      25502514                       # number of memory refs
system.cpu.num_load_insts                    21863457                       # Number of load instructions
system.cpu.num_store_insts                    3639057                       # Number of store instructions
system.cpu.num_idle_cycles                          0                       # Number of idle cycles
system.cpu.num_busy_cycles                  192654035                       # Number of busy cycles
system.cpu.not_idle_fraction                        1                       # Percentage of non-idle cycles
system.cpu.idle_fraction                            0                       # Percentage of idle cycles
system.cpu.Branches                           2859327                       # Number of branches fetched
system.cpu.predictedBranches                  2115526                       # Number of branches predicted as taken
system.cpu.BranchMispred                       273192                       # Number of branch mispredictions
system.cpu.numBranchMispreadPercent          9.554416                       # Number of Branch Mispread Percent
system.cpu.op_class::No_OpClass                195747      0.30%      0.30% # Class of executed instruction
system.cpu.op_class::IntAlu                  36732834     56.50%     56.80% # Class of executed instruction
system.cpu.op_class::IntMult                    70748      0.11%     56.91% # Class of executed instruction
system.cpu.op_class::IntDiv                    629626      0.97%     57.88% # Class of executed instruction
system.cpu.op_class::FloatAdd                 1882996      2.90%     60.77% # Class of executed instruction
system.cpu.op_class::FloatCmp                       0      0.00%     60.77% # Class of executed instruction
system.cpu.op_class::FloatCvt                       0      0.00%     60.77% # Class of executed instruction
system.cpu.op_class::FloatMult                      0      0.00%     60.77% # Class of executed instruction
system.cpu.op_class::FloatDiv                       0      0.00%     60.77% # Class of executed instruction
system.cpu.op_class::FloatSqrt                      0      0.00%     60.77% # Class of executed instruction
system.cpu.op_class::SimdAdd                        0      0.00%     60.77% # Class of executed instruction
system.cpu.op_class::SimdAddAcc                     0      0.00%     60.77% # Class of executed instruction
system.cpu.op_class::SimdAlu                        0      0.00%     60.77% # Class of executed instruction
system.cpu.op_class::SimdCmp                        0      0.00%     60.77% # Class of executed instruction
system.cpu.op_class::SimdCvt                        0      0.00%     60.77% # Class of executed instruction
system.cpu.op_class::SimdMisc                       0      0.00%     60.77% # Class of executed instruction
system.cpu.op_class::SimdMult                       0      0.00%     60.77% # Class of executed instruction
system.cpu.op_class::SimdMultAcc                    0      0.00%     60.77% # Class of executed instruction
system.cpu.op_class::SimdShift                      0      0.00%     60.77% # Class of executed instruction
system.cpu.op_class::SimdShiftAcc                   0      0.00%     60.77% # Class of executed instruction
system.cpu.op_class::SimdSqrt                       0      0.00%     60.77% # Class of executed instruction
system.cpu.op_class::SimdFloatAdd                   0      0.00%     60.77% # Class of executed instruction
system.cpu.op_class::SimdFloatAlu                   0      0.00%     60.77% # Class of executed instruction
system.cpu.op_class::SimdFloatCmp                   0      0.00%     60.77% # Class of executed instruction
system.cpu.op_class::SimdFloatCvt                   0      0.00%     60.77% # Class of executed instruction
system.cpu.op_class::SimdFloatDiv                   0      0.00%     60.77% # Class of executed instruction
system.cpu.op_class::SimdFloatMisc                  0      0.00%     60.77% # Class of executed instruction
system.cpu.op_class::SimdFloatMult                  0      0.00%     60.77% # Class of executed instruction
system.cpu.op_class::SimdFloatMultAcc               0      0.00%     60.77% # Class of executed instruction
system.cpu.op_class::SimdFloatSqrt                  0      0.00%     60.77% # Class of executed instruction
system.cpu.op_class::MemRead                 21863457     33.63%     94.40% # Class of executed instruction
system.cpu.op_class::MemWrite                 3639057      5.60%    100.00% # Class of executed instruction
system.cpu.op_class::IprAccess                      0      0.00%    100.00% # Class of executed instruction
system.cpu.op_class::InstPrefetch                   0      0.00%    100.00% # Class of executed instruction
system.cpu.op_class::total                   65014465                       # Class of executed instruction
system.cpu.dcache.tags.replacements             48173                       # number of replacements
system.cpu.dcache.tags.tagsinuse          3969.376701                       # Cycle average of tags in use
system.cpu.dcache.tags.total_refs            25451858                       # Total number of references to valid blocks.
system.cpu.dcache.tags.sampled_refs             52269                       # Sample count of references to valid blocks.
system.cpu.dcache.tags.avg_refs            486.939830                       # Average number of references to valid blocks.
system.cpu.dcache.tags.warmup_cycle       19222878500                       # Cycle when the warmup percentage was hit.
system.cpu.dcache.tags.occ_blocks::cpu.data  3969.376701                       # Average occupied blocks per requestor
system.cpu.dcache.tags.occ_percent::cpu.data     0.969086                       # Average percentage of cache occupancy
system.cpu.dcache.tags.occ_percent::total     0.969086                       # Average percentage of cache occupancy
system.cpu.dcache.tags.occ_task_id_blocks::1024         4096                       # Occupied blocks per task id
system.cpu.dcache.tags.age_task_id_blocks_1024::0            6                       # Occupied blocks per task id
system.cpu.dcache.tags.age_task_id_blocks_1024::1           30                       # Occupied blocks per task id
system.cpu.dcache.tags.age_task_id_blocks_1024::2          162                       # Occupied blocks per task id
system.cpu.dcache.tags.age_task_id_blocks_1024::3         1704                       # Occupied blocks per task id
system.cpu.dcache.tags.age_task_id_blocks_1024::4         2194                       # Occupied blocks per task id
system.cpu.dcache.tags.occ_task_id_percent::1024            1                       # Percentage of cache occupancy per task id
system.cpu.dcache.tags.tag_accesses          25556396                       # Number of tag accesses
system.cpu.dcache.tags.data_accesses         25556396                       # Number of data accesses
system.cpu.dcache.ReadReq_hits::cpu.data     21851060                       # number of ReadReq hits
system.cpu.dcache.ReadReq_hits::total        21851060                       # number of ReadReq hits
system.cpu.dcache.WriteReq_hits::cpu.data      3599099                       # number of WriteReq hits
system.cpu.dcache.WriteReq_hits::total        3599099                       # number of WriteReq hits
system.cpu.dcache.SoftPFReq_hits::cpu.data         1699                       # number of SoftPFReq hits
system.cpu.dcache.SoftPFReq_hits::total          1699                       # number of SoftPFReq hits
system.cpu.dcache.demand_hits::cpu.data      25450159                       # number of demand (read+write) hits
system.cpu.dcache.demand_hits::total         25450159                       # number of demand (read+write) hits
system.cpu.dcache.overall_hits::cpu.data     25451858                       # number of overall hits
system.cpu.dcache.overall_hits::total        25451858                       # number of overall hits
system.cpu.dcache.ReadReq_misses::cpu.data        10962                       # number of ReadReq misses
system.cpu.dcache.ReadReq_misses::total         10962                       # number of ReadReq misses
system.cpu.dcache.WriteReq_misses::cpu.data        40060                       # number of WriteReq misses
system.cpu.dcache.WriteReq_misses::total        40060                       # number of WriteReq misses
system.cpu.dcache.SoftPFReq_misses::cpu.data         1247                       # number of SoftPFReq misses
system.cpu.dcache.SoftPFReq_misses::total         1247                       # number of SoftPFReq misses
system.cpu.dcache.demand_misses::cpu.data        51022                       # number of demand (read+write) misses
system.cpu.dcache.demand_misses::total          51022                       # number of demand (read+write) misses
system.cpu.dcache.overall_misses::cpu.data        52269                       # number of overall misses
system.cpu.dcache.overall_misses::total         52269                       # number of overall misses
system.cpu.dcache.ReadReq_miss_latency::cpu.data    217219000                       # number of ReadReq miss cycles
system.cpu.dcache.ReadReq_miss_latency::total    217219000                       # number of ReadReq miss cycles
system.cpu.dcache.WriteReq_miss_latency::cpu.data    907392500                       # number of WriteReq miss cycles
system.cpu.dcache.WriteReq_miss_latency::total    907392500                       # number of WriteReq miss cycles
system.cpu.dcache.demand_miss_latency::cpu.data   1124611500                       # number of demand (read+write) miss cycles
system.cpu.dcache.demand_miss_latency::total   1124611500                       # number of demand (read+write) miss cycles
system.cpu.dcache.overall_miss_latency::cpu.data   1124611500                       # number of overall miss cycles
system.cpu.dcache.overall_miss_latency::total   1124611500                       # number of overall miss cycles
system.cpu.dcache.ReadReq_accesses::cpu.data     21862022                       # number of ReadReq accesses(hits+misses)
system.cpu.dcache.ReadReq_accesses::total     21862022                       # number of ReadReq accesses(hits+misses)
system.cpu.dcache.WriteReq_accesses::cpu.data      3639159                       # number of WriteReq accesses(hits+misses)
system.cpu.dcache.WriteReq_accesses::total      3639159                       # number of WriteReq accesses(hits+misses)
system.cpu.dcache.SoftPFReq_accesses::cpu.data         2946                       # number of SoftPFReq accesses(hits+misses)
system.cpu.dcache.SoftPFReq_accesses::total         2946                       # number of SoftPFReq accesses(hits+misses)
system.cpu.dcache.demand_accesses::cpu.data     25501181                       # number of demand (read+write) accesses
system.cpu.dcache.demand_accesses::total     25501181                       # number of demand (read+write) accesses
system.cpu.dcache.overall_accesses::cpu.data     25504127                       # number of overall (read+write) accesses
system.cpu.dcache.overall_accesses::total     25504127                       # number of overall (read+write) accesses
system.cpu.dcache.ReadReq_miss_rate::cpu.data     0.000501                       # miss rate for ReadReq accesses
system.cpu.dcache.ReadReq_miss_rate::total     0.000501                       # miss rate for ReadReq accesses
system.cpu.dcache.WriteReq_miss_rate::cpu.data     0.011008                       # miss rate for WriteReq accesses
system.cpu.dcache.WriteReq_miss_rate::total     0.011008                       # miss rate for WriteReq accesses
system.cpu.dcache.SoftPFReq_miss_rate::cpu.data     0.423286                       # miss rate for SoftPFReq accesses
system.cpu.dcache.SoftPFReq_miss_rate::total     0.423286                       # miss rate for SoftPFReq accesses
system.cpu.dcache.demand_miss_rate::cpu.data     0.002001                       # miss rate for demand accesses
system.cpu.dcache.demand_miss_rate::total     0.002001                       # miss rate for demand accesses
system.cpu.dcache.overall_miss_rate::cpu.data     0.002049                       # miss rate for overall accesses
system.cpu.dcache.overall_miss_rate::total     0.002049                       # miss rate for overall accesses
system.cpu.dcache.ReadReq_avg_miss_latency::cpu.data 19815.635833                       # average ReadReq miss latency
system.cpu.dcache.ReadReq_avg_miss_latency::total 19815.635833                       # average ReadReq miss latency
system.cpu.dcache.WriteReq_avg_miss_latency::cpu.data 22650.836246                       # average WriteReq miss latency
system.cpu.dcache.WriteReq_avg_miss_latency::total 22650.836246                       # average WriteReq miss latency
system.cpu.dcache.demand_avg_miss_latency::cpu.data 22041.697699                       # average overall miss latency
system.cpu.dcache.demand_avg_miss_latency::total 22041.697699                       # average overall miss latency
system.cpu.dcache.overall_avg_miss_latency::cpu.data 21515.841130                       # average overall miss latency
system.cpu.dcache.overall_avg_miss_latency::total 21515.841130                       # average overall miss latency
system.cpu.dcache.blocked_cycles::no_mshrs          386                       # number of cycles access was blocked
system.cpu.dcache.blocked_cycles::no_targets            0                       # number of cycles access was blocked
system.cpu.dcache.blocked::no_mshrs                 1                       # number of cycles access was blocked
system.cpu.dcache.blocked::no_targets               0                       # number of cycles access was blocked
system.cpu.dcache.avg_blocked_cycles::no_mshrs          386                       # average number of cycles each access was blocked
system.cpu.dcache.avg_blocked_cycles::no_targets          nan                       # average number of cycles each access was blocked
system.cpu.dcache.fast_writes                       0                       # number of fast writes performed
system.cpu.dcache.cache_copies                      0                       # number of cache copies performed
system.cpu.dcache.writebacks::writebacks        46820                       # number of writebacks
system.cpu.dcache.writebacks::total             46820                       # number of writebacks
system.cpu.dcache.ReadReq_mshr_misses::cpu.data        10962                       # number of ReadReq MSHR misses
system.cpu.dcache.ReadReq_mshr_misses::total        10962                       # number of ReadReq MSHR misses
system.cpu.dcache.WriteReq_mshr_misses::cpu.data        40060                       # number of WriteReq MSHR misses
system.cpu.dcache.WriteReq_mshr_misses::total        40060                       # number of WriteReq MSHR misses
system.cpu.dcache.SoftPFReq_mshr_misses::cpu.data         1247                       # number of SoftPFReq MSHR misses
system.cpu.dcache.SoftPFReq_mshr_misses::total         1247                       # number of SoftPFReq MSHR misses
system.cpu.dcache.demand_mshr_misses::cpu.data        51022                       # number of demand (read+write) MSHR misses
system.cpu.dcache.demand_mshr_misses::total        51022                       # number of demand (read+write) MSHR misses
system.cpu.dcache.overall_mshr_misses::cpu.data        52269                       # number of overall MSHR misses
system.cpu.dcache.overall_mshr_misses::total        52269                       # number of overall MSHR misses
system.cpu.dcache.ReadReq_mshr_miss_latency::cpu.data    206257000                       # number of ReadReq MSHR miss cycles
system.cpu.dcache.ReadReq_mshr_miss_latency::total    206257000                       # number of ReadReq MSHR miss cycles
system.cpu.dcache.WriteReq_mshr_miss_latency::cpu.data    867332500                       # number of WriteReq MSHR miss cycles
system.cpu.dcache.WriteReq_mshr_miss_latency::total    867332500                       # number of WriteReq MSHR miss cycles
system.cpu.dcache.SoftPFReq_mshr_miss_latency::cpu.data     36196000                       # number of SoftPFReq MSHR miss cycles
system.cpu.dcache.SoftPFReq_mshr_miss_latency::total     36196000                       # number of SoftPFReq MSHR miss cycles
system.cpu.dcache.demand_mshr_miss_latency::cpu.data   1073589500                       # number of demand (read+write) MSHR miss cycles
system.cpu.dcache.demand_mshr_miss_latency::total   1073589500                       # number of demand (read+write) MSHR miss cycles
system.cpu.dcache.overall_mshr_miss_latency::cpu.data   1109785500                       # number of overall MSHR miss cycles
system.cpu.dcache.overall_mshr_miss_latency::total   1109785500                       # number of overall MSHR miss cycles
system.cpu.dcache.ReadReq_mshr_miss_rate::cpu.data     0.000501                       # mshr miss rate for ReadReq accesses
system.cpu.dcache.ReadReq_mshr_miss_rate::total     0.000501                       # mshr miss rate for ReadReq accesses
system.cpu.dcache.WriteReq_mshr_miss_rate::cpu.data     0.011008                       # mshr miss rate for WriteReq accesses
system.cpu.dcache.WriteReq_mshr_miss_rate::total     0.011008                       # mshr miss rate for WriteReq accesses
system.cpu.dcache.SoftPFReq_mshr_miss_rate::cpu.data     0.423286                       # mshr miss rate for SoftPFReq accesses
system.cpu.dcache.SoftPFReq_mshr_miss_rate::total     0.423286                       # mshr miss rate for SoftPFReq accesses
system.cpu.dcache.demand_mshr_miss_rate::cpu.data     0.002001                       # mshr miss rate for demand accesses
system.cpu.dcache.demand_mshr_miss_rate::total     0.002001                       # mshr miss rate for demand accesses
system.cpu.dcache.overall_mshr_miss_rate::cpu.data     0.002049                       # mshr miss rate for overall accesses
system.cpu.dcache.overall_mshr_miss_rate::total     0.002049                       # mshr miss rate for overall accesses
system.cpu.dcache.ReadReq_avg_mshr_miss_latency::cpu.data 18815.635833                       # average ReadReq mshr miss latency
system.cpu.dcache.ReadReq_avg_mshr_miss_latency::total 18815.635833                       # average ReadReq mshr miss latency
system.cpu.dcache.WriteReq_avg_mshr_miss_latency::cpu.data 21650.836246                       # average WriteReq mshr miss latency
system.cpu.dcache.WriteReq_avg_mshr_miss_latency::total 21650.836246                       # average WriteReq mshr miss latency
system.cpu.dcache.SoftPFReq_avg_mshr_miss_latency::cpu.data 29026.463512                       # average SoftPFReq mshr miss latency
system.cpu.dcache.SoftPFReq_avg_mshr_miss_latency::total 29026.463512                       # average SoftPFReq mshr miss latency
system.cpu.dcache.demand_avg_mshr_miss_latency::cpu.data 21041.697699                       # average overall mshr miss latency
system.cpu.dcache.demand_avg_mshr_miss_latency::total 21041.697699                       # average overall mshr miss latency
system.cpu.dcache.overall_avg_mshr_miss_latency::cpu.data 21232.193078                       # average overall mshr miss latency
system.cpu.dcache.overall_avg_mshr_miss_latency::total 21232.193078                       # average overall mshr miss latency
system.cpu.dcache.no_allocate_misses                0                       # Number of misses that were no-allocate
system.cpu.dtb_walker_cache.tags.replacements            0                       # number of replacements
system.cpu.dtb_walker_cache.tags.tagsinuse            0                       # Cycle average of tags in use
system.cpu.dtb_walker_cache.tags.total_refs            0                       # Total number of references to valid blocks.
system.cpu.dtb_walker_cache.tags.sampled_refs            0                       # Sample count of references to valid blocks.
system.cpu.dtb_walker_cache.tags.avg_refs          nan                       # Average number of references to valid blocks.
system.cpu.dtb_walker_cache.tags.warmup_cycle            0                       # Cycle when the warmup percentage was hit.
system.cpu.dtb_walker_cache.tags.tag_accesses            0                       # Number of tag accesses
system.cpu.dtb_walker_cache.tags.data_accesses            0                       # Number of data accesses
system.cpu.dtb_walker_cache.blocked_cycles::no_mshrs            0                       # number of cycles access was blocked
system.cpu.dtb_walker_cache.blocked_cycles::no_targets            0                       # number of cycles access was blocked
system.cpu.dtb_walker_cache.blocked::no_mshrs            0                       # number of cycles access was blocked
system.cpu.dtb_walker_cache.blocked::no_targets            0                       # number of cycles access was blocked
system.cpu.dtb_walker_cache.avg_blocked_cycles::no_mshrs          nan                       # average number of cycles each access was blocked
system.cpu.dtb_walker_cache.avg_blocked_cycles::no_targets          nan                       # average number of cycles each access was blocked
system.cpu.dtb_walker_cache.fast_writes             0                       # number of fast writes performed
system.cpu.dtb_walker_cache.cache_copies            0                       # number of cache copies performed
system.cpu.dtb_walker_cache.no_allocate_misses            0                       # Number of misses that were no-allocate
system.cpu.icache.tags.replacements              1215                       # number of replacements
system.cpu.icache.tags.tagsinuse          1850.935331                       # Cycle average of tags in use
system.cpu.icache.tags.total_refs            69564789                       # Total number of references to valid blocks.
system.cpu.icache.tags.sampled_refs              3082                       # Sample count of references to valid blocks.
system.cpu.icache.tags.avg_refs          22571.313757                       # Average number of references to valid blocks.
system.cpu.icache.tags.warmup_cycle                 0                       # Cycle when the warmup percentage was hit.
system.cpu.icache.tags.occ_blocks::cpu.inst  1850.935331                       # Average occupied blocks per requestor
system.cpu.icache.tags.occ_percent::cpu.inst     0.451889                       # Average percentage of cache occupancy
system.cpu.icache.tags.occ_percent::total     0.451889                       # Average percentage of cache occupancy
system.cpu.icache.tags.occ_task_id_blocks::1024         1867                       # Occupied blocks per task id
system.cpu.icache.tags.age_task_id_blocks_1024::3           16                       # Occupied blocks per task id
system.cpu.icache.tags.age_task_id_blocks_1024::4         1851                       # Occupied blocks per task id
system.cpu.icache.tags.occ_task_id_percent::1024     0.455811                       # Percentage of cache occupancy per task id
system.cpu.icache.tags.tag_accesses          69570953                       # Number of tag accesses
system.cpu.icache.tags.data_accesses         69570953                       # Number of data accesses
system.cpu.icache.ReadReq_hits::cpu.inst     69564789                       # number of ReadReq hits
system.cpu.icache.ReadReq_hits::total        69564789                       # number of ReadReq hits
system.cpu.icache.demand_hits::cpu.inst      69564789                       # number of demand (read+write) hits
system.cpu.icache.demand_hits::total         69564789                       # number of demand (read+write) hits
system.cpu.icache.overall_hits::cpu.inst     69564789                       # number of overall hits
system.cpu.icache.overall_hits::total        69564789                       # number of overall hits
system.cpu.icache.ReadReq_misses::cpu.inst         3082                       # number of ReadReq misses
system.cpu.icache.ReadReq_misses::total          3082                       # number of ReadReq misses
system.cpu.icache.demand_misses::cpu.inst         3082                       # number of demand (read+write) misses
system.cpu.icache.demand_misses::total           3082                       # number of demand (read+write) misses
system.cpu.icache.overall_misses::cpu.inst         3082                       # number of overall misses
system.cpu.icache.overall_misses::total          3082                       # number of overall misses
system.cpu.icache.ReadReq_miss_latency::cpu.inst    185142500                       # number of ReadReq miss cycles
system.cpu.icache.ReadReq_miss_latency::total    185142500                       # number of ReadReq miss cycles
system.cpu.icache.demand_miss_latency::cpu.inst    185142500                       # number of demand (read+write) miss cycles
system.cpu.icache.demand_miss_latency::total    185142500                       # number of demand (read+write) miss cycles
system.cpu.icache.overall_miss_latency::cpu.inst    185142500                       # number of overall miss cycles
system.cpu.icache.overall_miss_latency::total    185142500                       # number of overall miss cycles
system.cpu.icache.ReadReq_accesses::cpu.inst     69567871                       # number of ReadReq accesses(hits+misses)
system.cpu.icache.ReadReq_accesses::total     69567871                       # number of ReadReq accesses(hits+misses)
system.cpu.icache.demand_accesses::cpu.inst     69567871                       # number of demand (read+write) accesses
system.cpu.icache.demand_accesses::total     69567871                       # number of demand (read+write) accesses
system.cpu.icache.overall_accesses::cpu.inst     69567871                       # number of overall (read+write) accesses
system.cpu.icache.overall_accesses::total     69567871                       # number of overall (read+write) accesses
system.cpu.icache.ReadReq_miss_rate::cpu.inst     0.000044                       # miss rate for ReadReq accesses
system.cpu.icache.ReadReq_miss_rate::total     0.000044                       # miss rate for ReadReq accesses
system.cpu.icache.demand_miss_rate::cpu.inst     0.000044                       # miss rate for demand accesses
system.cpu.icache.demand_miss_rate::total     0.000044                       # miss rate for demand accesses
system.cpu.icache.overall_miss_rate::cpu.inst     0.000044                       # miss rate for overall accesses
system.cpu.icache.overall_miss_rate::total     0.000044                       # miss rate for overall accesses
system.cpu.icache.ReadReq_avg_miss_latency::cpu.inst 60072.193381                       # average ReadReq miss latency
system.cpu.icache.ReadReq_avg_miss_latency::total 60072.193381                       # average ReadReq miss latency
system.cpu.icache.demand_avg_miss_latency::cpu.inst 60072.193381                       # average overall miss latency
system.cpu.icache.demand_avg_miss_latency::total 60072.193381                       # average overall miss latency
system.cpu.icache.overall_avg_miss_latency::cpu.inst 60072.193381                       # average overall miss latency
system.cpu.icache.overall_avg_miss_latency::total 60072.193381                       # average overall miss latency
system.cpu.icache.blocked_cycles::no_mshrs            0                       # number of cycles access was blocked
system.cpu.icache.blocked_cycles::no_targets            0                       # number of cycles access was blocked
system.cpu.icache.blocked::no_mshrs                 0                       # number of cycles access was blocked
system.cpu.icache.blocked::no_targets               0                       # number of cycles access was blocked
system.cpu.icache.avg_blocked_cycles::no_mshrs          nan                       # average number of cycles each access was blocked
system.cpu.icache.avg_blocked_cycles::no_targets          nan                       # average number of cycles each access was blocked
system.cpu.icache.fast_writes                       0                       # number of fast writes performed
system.cpu.icache.cache_copies                      0                       # number of cache copies performed
system.cpu.icache.writebacks::writebacks         1215                       # number of writebacks
system.cpu.icache.writebacks::total              1215                       # number of writebacks
system.cpu.icache.ReadReq_mshr_misses::cpu.inst         3082                       # number of ReadReq MSHR misses
system.cpu.icache.ReadReq_mshr_misses::total         3082                       # number of ReadReq MSHR misses
system.cpu.icache.demand_mshr_misses::cpu.inst         3082                       # number of demand (read+write) MSHR misses
system.cpu.icache.demand_mshr_misses::total         3082                       # number of demand (read+write) MSHR misses
system.cpu.icache.overall_mshr_misses::cpu.inst         3082                       # number of overall MSHR misses
system.cpu.icache.overall_mshr_misses::total         3082                       # number of overall MSHR misses
system.cpu.icache.ReadReq_mshr_miss_latency::cpu.inst    182060500                       # number of ReadReq MSHR miss cycles
system.cpu.icache.ReadReq_mshr_miss_latency::total    182060500                       # number of ReadReq MSHR miss cycles
system.cpu.icache.demand_mshr_miss_latency::cpu.inst    182060500                       # number of demand (read+write) MSHR miss cycles
system.cpu.icache.demand_mshr_miss_latency::total    182060500                       # number of demand (read+write) MSHR miss cycles
system.cpu.icache.overall_mshr_miss_latency::cpu.inst    182060500                       # number of overall MSHR miss cycles
system.cpu.icache.overall_mshr_miss_latency::total    182060500                       # number of overall MSHR miss cycles
system.cpu.icache.ReadReq_mshr_miss_rate::cpu.inst     0.000044                       # mshr miss rate for ReadReq accesses
system.cpu.icache.ReadReq_mshr_miss_rate::total     0.000044                       # mshr miss rate for ReadReq accesses
system.cpu.icache.demand_mshr_miss_rate::cpu.inst     0.000044                       # mshr miss rate for demand accesses
system.cpu.icache.demand_mshr_miss_rate::total     0.000044                       # mshr miss rate for demand accesses
system.cpu.icache.overall_mshr_miss_rate::cpu.inst     0.000044                       # mshr miss rate for overall accesses
system.cpu.icache.overall_mshr_miss_rate::total     0.000044                       # mshr miss rate for overall accesses
system.cpu.icache.ReadReq_avg_mshr_miss_latency::cpu.inst 59072.193381                       # average ReadReq mshr miss latency
system.cpu.icache.ReadReq_avg_mshr_miss_latency::total 59072.193381                       # average ReadReq mshr miss latency
system.cpu.icache.demand_avg_mshr_miss_latency::cpu.inst 59072.193381                       # average overall mshr miss latency
system.cpu.icache.demand_avg_mshr_miss_latency::total 59072.193381                       # average overall mshr miss latency
system.cpu.icache.overall_avg_mshr_miss_latency::cpu.inst 59072.193381                       # average overall mshr miss latency
system.cpu.icache.overall_avg_mshr_miss_latency::total 59072.193381                       # average overall mshr miss latency
system.cpu.icache.no_allocate_misses                0                       # Number of misses that were no-allocate
system.cpu.itb_walker_cache.tags.replacements            0                       # number of replacements
system.cpu.itb_walker_cache.tags.tagsinuse            0                       # Cycle average of tags in use
system.cpu.itb_walker_cache.tags.total_refs            0                       # Total number of references to valid blocks.
system.cpu.itb_walker_cache.tags.sampled_refs            0                       # Sample count of references to valid blocks.
system.cpu.itb_walker_cache.tags.avg_refs          nan                       # Average number of references to valid blocks.
system.cpu.itb_walker_cache.tags.warmup_cycle            0                       # Cycle when the warmup percentage was hit.
system.cpu.itb_walker_cache.tags.tag_accesses            0                       # Number of tag accesses
system.cpu.itb_walker_cache.tags.data_accesses            0                       # Number of data accesses
system.cpu.itb_walker_cache.blocked_cycles::no_mshrs            0                       # number of cycles access was blocked
system.cpu.itb_walker_cache.blocked_cycles::no_targets            0                       # number of cycles access was blocked
system.cpu.itb_walker_cache.blocked::no_mshrs            0                       # number of cycles access was blocked
system.cpu.itb_walker_cache.blocked::no_targets            0                       # number of cycles access was blocked
system.cpu.itb_walker_cache.avg_blocked_cycles::no_mshrs          nan                       # average number of cycles each access was blocked
system.cpu.itb_walker_cache.avg_blocked_cycles::no_targets          nan                       # average number of cycles each access was blocked
system.cpu.itb_walker_cache.fast_writes             0                       # number of fast writes performed
system.cpu.itb_walker_cache.cache_copies            0                       # number of cache copies performed
system.cpu.itb_walker_cache.no_allocate_misses            0                       # Number of misses that were no-allocate
system.l2.tags.replacements                         0                       # number of replacements
system.l2.tags.tagsinuse                  5299.547112                       # Cycle average of tags in use
system.l2.tags.total_refs                       36621                       # Total number of references to valid blocks.
system.l2.tags.sampled_refs                      5744                       # Sample count of references to valid blocks.
system.l2.tags.avg_refs                      6.375522                       # Average number of references to valid blocks.
system.l2.tags.warmup_cycle                         0                       # Cycle when the warmup percentage was hit.
system.l2.tags.occ_blocks::writebacks     1933.299317                       # Average occupied blocks per requestor
system.l2.tags.occ_blocks::cpu.inst       2233.611629                       # Average occupied blocks per requestor
system.l2.tags.occ_blocks::cpu.data       1132.636166                       # Average occupied blocks per requestor
system.l2.tags.occ_percent::writebacks       0.014750                       # Average percentage of cache occupancy
system.l2.tags.occ_percent::cpu.inst         0.017041                       # Average percentage of cache occupancy
system.l2.tags.occ_percent::cpu.data         0.008641                       # Average percentage of cache occupancy
system.l2.tags.occ_percent::total            0.040432                       # Average percentage of cache occupancy
system.l2.tags.occ_task_id_blocks::1024          5744                       # Occupied blocks per task id
system.l2.tags.age_task_id_blocks_1024::0            6                       # Occupied blocks per task id
system.l2.tags.age_task_id_blocks_1024::1           30                       # Occupied blocks per task id
system.l2.tags.age_task_id_blocks_1024::2          154                       # Occupied blocks per task id
system.l2.tags.age_task_id_blocks_1024::3         1651                       # Occupied blocks per task id
system.l2.tags.age_task_id_blocks_1024::4         3903                       # Occupied blocks per task id
system.l2.tags.occ_task_id_percent::1024     0.043823                       # Percentage of cache occupancy per task id
system.l2.tags.tag_accesses                    150543                       # Number of tag accesses
system.l2.tags.data_accesses                   150543                       # Number of data accesses
system.l2.WritebackDirty_hits::writebacks        46820                       # number of WritebackDirty hits
system.l2.WritebackDirty_hits::total            46820                       # number of WritebackDirty hits
system.l2.WritebackClean_hits::writebacks         1215                       # number of WritebackClean hits
system.l2.WritebackClean_hits::total             1215                       # number of WritebackClean hits
system.l2.ReadExReq_hits::cpu.data              34272                       # number of ReadExReq hits
system.l2.ReadExReq_hits::total                 34272                       # number of ReadExReq hits
system.l2.ReadCleanReq_hits::cpu.inst             821                       # number of ReadCleanReq hits
system.l2.ReadCleanReq_hits::total                821                       # number of ReadCleanReq hits
system.l2.ReadSharedReq_hits::cpu.data          10729                       # number of ReadSharedReq hits
system.l2.ReadSharedReq_hits::total             10729                       # number of ReadSharedReq hits
system.l2.demand_hits::cpu.inst                   821                       # number of demand (read+write) hits
system.l2.demand_hits::cpu.data                 45001                       # number of demand (read+write) hits
system.l2.demand_hits::total                    45822                       # number of demand (read+write) hits
system.l2.overall_hits::cpu.inst                  821                       # number of overall hits
system.l2.overall_hits::cpu.data                45001                       # number of overall hits
system.l2.overall_hits::total                   45822                       # number of overall hits
system.l2.ReadExReq_misses::cpu.data             5788                       # number of ReadExReq misses
system.l2.ReadExReq_misses::total                5788                       # number of ReadExReq misses
system.l2.ReadCleanReq_misses::cpu.inst          2261                       # number of ReadCleanReq misses
system.l2.ReadCleanReq_misses::total             2261                       # number of ReadCleanReq misses
system.l2.ReadSharedReq_misses::cpu.data         1480                       # number of ReadSharedReq misses
system.l2.ReadSharedReq_misses::total            1480                       # number of ReadSharedReq misses
system.l2.demand_misses::cpu.inst                2261                       # number of demand (read+write) misses
system.l2.demand_misses::cpu.data                7268                       # number of demand (read+write) misses
system.l2.demand_misses::total                   9529                       # number of demand (read+write) misses
system.l2.overall_misses::cpu.inst               2261                       # number of overall misses
system.l2.overall_misses::cpu.data               7268                       # number of overall misses
system.l2.overall_misses::total                  9529                       # number of overall misses
system.l2.ReadExReq_miss_latency::cpu.data    447386500                       # number of ReadExReq miss cycles
system.l2.ReadExReq_miss_latency::total     447386500                       # number of ReadExReq miss cycles
system.l2.ReadCleanReq_miss_latency::cpu.inst    168817000                       # number of ReadCleanReq miss cycles
system.l2.ReadCleanReq_miss_latency::total    168817000                       # number of ReadCleanReq miss cycles
system.l2.ReadSharedReq_miss_latency::cpu.data    111485000                       # number of ReadSharedReq miss cycles
system.l2.ReadSharedReq_miss_latency::total    111485000                       # number of ReadSharedReq miss cycles
system.l2.demand_miss_latency::cpu.inst     168817000                       # number of demand (read+write) miss cycles
system.l2.demand_miss_latency::cpu.data     558871500                       # number of demand (read+write) miss cycles
system.l2.demand_miss_latency::total        727688500                       # number of demand (read+write) miss cycles
system.l2.overall_miss_latency::cpu.inst    168817000                       # number of overall miss cycles
system.l2.overall_miss_latency::cpu.data    558871500                       # number of overall miss cycles
system.l2.overall_miss_latency::total       727688500                       # number of overall miss cycles
system.l2.WritebackDirty_accesses::writebacks        46820                       # number of WritebackDirty accesses(hits+misses)
system.l2.WritebackDirty_accesses::total        46820                       # number of WritebackDirty accesses(hits+misses)
system.l2.WritebackClean_accesses::writebacks         1215                       # number of WritebackClean accesses(hits+misses)
system.l2.WritebackClean_accesses::total         1215                       # number of WritebackClean accesses(hits+misses)
system.l2.ReadExReq_accesses::cpu.data          40060                       # number of ReadExReq accesses(hits+misses)
system.l2.ReadExReq_accesses::total             40060                       # number of ReadExReq accesses(hits+misses)
system.l2.ReadCleanReq_accesses::cpu.inst         3082                       # number of ReadCleanReq accesses(hits+misses)
system.l2.ReadCleanReq_accesses::total           3082                       # number of ReadCleanReq accesses(hits+misses)
system.l2.ReadSharedReq_accesses::cpu.data        12209                       # number of ReadSharedReq accesses(hits+misses)
system.l2.ReadSharedReq_accesses::total         12209                       # number of ReadSharedReq accesses(hits+misses)
system.l2.demand_accesses::cpu.inst              3082                       # number of demand (read+write) accesses
system.l2.demand_accesses::cpu.data             52269                       # number of demand (read+write) accesses
system.l2.demand_accesses::total                55351                       # number of demand (read+write) accesses
system.l2.overall_accesses::cpu.inst             3082                       # number of overall (read+write) accesses
system.l2.overall_accesses::cpu.data            52269                       # number of overall (read+write) accesses
system.l2.overall_accesses::total               55351                       # number of overall (read+write) accesses
system.l2.ReadExReq_miss_rate::cpu.data      0.144483                       # miss rate for ReadExReq accesses
system.l2.ReadExReq_miss_rate::total         0.144483                       # miss rate for ReadExReq accesses
system.l2.ReadCleanReq_miss_rate::cpu.inst     0.733615                       # miss rate for ReadCleanReq accesses
system.l2.ReadCleanReq_miss_rate::total      0.733615                       # miss rate for ReadCleanReq accesses
system.l2.ReadSharedReq_miss_rate::cpu.data     0.121222                       # miss rate for ReadSharedReq accesses
system.l2.ReadSharedReq_miss_rate::total     0.121222                       # miss rate for ReadSharedReq accesses
system.l2.demand_miss_rate::cpu.inst         0.733615                       # miss rate for demand accesses
system.l2.demand_miss_rate::cpu.data         0.139050                       # miss rate for demand accesses
system.l2.demand_miss_rate::total            0.172156                       # miss rate for demand accesses
system.l2.overall_miss_rate::cpu.inst        0.733615                       # miss rate for overall accesses
system.l2.overall_miss_rate::cpu.data        0.139050                       # miss rate for overall accesses
system.l2.overall_miss_rate::total           0.172156                       # miss rate for overall accesses
system.l2.ReadExReq_avg_miss_latency::cpu.data 77295.525225                       # average ReadExReq miss latency
system.l2.ReadExReq_avg_miss_latency::total 77295.525225                       # average ReadExReq miss latency
system.l2.ReadCleanReq_avg_miss_latency::cpu.inst 74664.750111                       # average ReadCleanReq miss latency
system.l2.ReadCleanReq_avg_miss_latency::total 74664.750111                       # average ReadCleanReq miss latency
system.l2.ReadSharedReq_avg_miss_latency::cpu.data 75327.702703                       # average ReadSharedReq miss latency
system.l2.ReadSharedReq_avg_miss_latency::total 75327.702703                       # average ReadSharedReq miss latency
system.l2.demand_avg_miss_latency::cpu.inst 74664.750111                       # average overall miss latency
system.l2.demand_avg_miss_latency::cpu.data 76894.812878                       # average overall miss latency
system.l2.demand_avg_miss_latency::total 76365.673208                       # average overall miss latency
system.l2.overall_avg_miss_latency::cpu.inst 74664.750111                       # average overall miss latency
system.l2.overall_avg_miss_latency::cpu.data 76894.812878                       # average overall miss latency
system.l2.overall_avg_miss_latency::total 76365.673208                       # average overall miss latency
system.l2.blocked_cycles::no_mshrs                  0                       # number of cycles access was blocked
system.l2.blocked_cycles::no_targets                0                       # number of cycles access was blocked
system.l2.blocked::no_mshrs                         0                       # number of cycles access was blocked
system.l2.blocked::no_targets                       0                       # number of cycles access was blocked
system.l2.avg_blocked_cycles::no_mshrs            nan                       # average number of cycles each access was blocked
system.l2.avg_blocked_cycles::no_targets          nan                       # average number of cycles each access was blocked
system.l2.fast_writes                               0                       # number of fast writes performed
system.l2.cache_copies                              0                       # number of cache copies performed
system.l2.ReadExReq_mshr_misses::cpu.data         5788                       # number of ReadExReq MSHR misses
system.l2.ReadExReq_mshr_misses::total           5788                       # number of ReadExReq MSHR misses
system.l2.ReadCleanReq_mshr_misses::cpu.inst         2261                       # number of ReadCleanReq MSHR misses
system.l2.ReadCleanReq_mshr_misses::total         2261                       # number of ReadCleanReq MSHR misses
system.l2.ReadSharedReq_mshr_misses::cpu.data         1480                       # number of ReadSharedReq MSHR misses
system.l2.ReadSharedReq_mshr_misses::total         1480                       # number of ReadSharedReq MSHR misses
system.l2.demand_mshr_misses::cpu.inst           2261                       # number of demand (read+write) MSHR misses
system.l2.demand_mshr_misses::cpu.data           7268                       # number of demand (read+write) MSHR misses
system.l2.demand_mshr_misses::total              9529                       # number of demand (read+write) MSHR misses
system.l2.overall_mshr_misses::cpu.inst          2261                       # number of overall MSHR misses
system.l2.overall_mshr_misses::cpu.data          7268                       # number of overall MSHR misses
system.l2.overall_mshr_misses::total             9529                       # number of overall MSHR misses
system.l2.ReadExReq_mshr_miss_latency::cpu.data    389506500                       # number of ReadExReq MSHR miss cycles
system.l2.ReadExReq_mshr_miss_latency::total    389506500                       # number of ReadExReq MSHR miss cycles
system.l2.ReadCleanReq_mshr_miss_latency::cpu.inst    146207000                       # number of ReadCleanReq MSHR miss cycles
system.l2.ReadCleanReq_mshr_miss_latency::total    146207000                       # number of ReadCleanReq MSHR miss cycles
system.l2.ReadSharedReq_mshr_miss_latency::cpu.data     96685000                       # number of ReadSharedReq MSHR miss cycles
system.l2.ReadSharedReq_mshr_miss_latency::total     96685000                       # number of ReadSharedReq MSHR miss cycles
system.l2.demand_mshr_miss_latency::cpu.inst    146207000                       # number of demand (read+write) MSHR miss cycles
system.l2.demand_mshr_miss_latency::cpu.data    486191500                       # number of demand (read+write) MSHR miss cycles
system.l2.demand_mshr_miss_latency::total    632398500                       # number of demand (read+write) MSHR miss cycles
system.l2.overall_mshr_miss_latency::cpu.inst    146207000                       # number of overall MSHR miss cycles
system.l2.overall_mshr_miss_latency::cpu.data    486191500                       # number of overall MSHR miss cycles
system.l2.overall_mshr_miss_latency::total    632398500                       # number of overall MSHR miss cycles
system.l2.ReadExReq_mshr_miss_rate::cpu.data     0.144483                       # mshr miss rate for ReadExReq accesses
system.l2.ReadExReq_mshr_miss_rate::total     0.144483                       # mshr miss rate for ReadExReq accesses
system.l2.ReadCleanReq_mshr_miss_rate::cpu.inst     0.733615                       # mshr miss rate for ReadCleanReq accesses
system.l2.ReadCleanReq_mshr_miss_rate::total     0.733615                       # mshr miss rate for ReadCleanReq accesses
system.l2.ReadSharedReq_mshr_miss_rate::cpu.data     0.121222                       # mshr miss rate for ReadSharedReq accesses
system.l2.ReadSharedReq_mshr_miss_rate::total     0.121222                       # mshr miss rate for ReadSharedReq accesses
system.l2.demand_mshr_miss_rate::cpu.inst     0.733615                       # mshr miss rate for demand accesses
system.l2.demand_mshr_miss_rate::cpu.data     0.139050                       # mshr miss rate for demand accesses
system.l2.demand_mshr_miss_rate::total       0.172156                       # mshr miss rate for demand accesses
system.l2.overall_mshr_miss_rate::cpu.inst     0.733615                       # mshr miss rate for overall accesses
system.l2.overall_mshr_miss_rate::cpu.data     0.139050                       # mshr miss rate for overall accesses
system.l2.overall_mshr_miss_rate::total      0.172156                       # mshr miss rate for overall accesses
system.l2.ReadExReq_avg_mshr_miss_latency::cpu.data 67295.525225                       # average ReadExReq mshr miss latency
system.l2.ReadExReq_avg_mshr_miss_latency::total 67295.525225                       # average ReadExReq mshr miss latency
system.l2.ReadCleanReq_avg_mshr_miss_latency::cpu.inst 64664.750111                       # average ReadCleanReq mshr miss latency
system.l2.ReadCleanReq_avg_mshr_miss_latency::total 64664.750111                       # average ReadCleanReq mshr miss latency
system.l2.ReadSharedReq_avg_mshr_miss_latency::cpu.data 65327.702703                       # average ReadSharedReq mshr miss latency
system.l2.ReadSharedReq_avg_mshr_miss_latency::total 65327.702703                       # average ReadSharedReq mshr miss latency
system.l2.demand_avg_mshr_miss_latency::cpu.inst 64664.750111                       # average overall mshr miss latency
system.l2.demand_avg_mshr_miss_latency::cpu.data 66894.812878                       # average overall mshr miss latency
system.l2.demand_avg_mshr_miss_latency::total 66365.673208                       # average overall mshr miss latency
system.l2.overall_avg_mshr_miss_latency::cpu.inst 64664.750111                       # average overall mshr miss latency
system.l2.overall_avg_mshr_miss_latency::cpu.data 66894.812878                       # average overall mshr miss latency
system.l2.overall_avg_mshr_miss_latency::total 66365.673208                       # average overall mshr miss latency
system.l2.no_allocate_misses                        0                       # Number of misses that were no-allocate
system.membus.trans_dist::ReadResp               3741                       # Transaction distribution
system.membus.trans_dist::ReadExReq              5788                       # Transaction distribution
system.membus.trans_dist::ReadExResp             5788                       # Transaction distribution
system.membus.trans_dist::ReadSharedReq          3741                       # Transaction distribution
system.membus.pkt_count_system.l2.mem_side::system.mem_ctrls.port        19058                       # Packet count per connected master and slave (bytes)
system.membus.pkt_count_system.l2.mem_side::total        19058                       # Packet count per connected master and slave (bytes)
system.membus.pkt_count::total                  19058                       # Packet count per connected master and slave (bytes)
system.membus.pkt_size_system.l2.mem_side::system.mem_ctrls.port       304928                       # Cumulative packet size per connected master and slave (bytes)
system.membus.pkt_size_system.l2.mem_side::total       304928                       # Cumulative packet size per connected master and slave (bytes)
system.membus.pkt_size::total                  304928                       # Cumulative packet size per connected master and slave (bytes)
system.membus.snoops                                0                       # Total snoops (count)
system.membus.snoop_fanout::samples              9529                       # Request fanout histogram
system.membus.snoop_fanout::mean                    0                       # Request fanout histogram
system.membus.snoop_fanout::stdev                   0                       # Request fanout histogram
system.membus.snoop_fanout::underflows              0      0.00%      0.00% # Request fanout histogram
system.membus.snoop_fanout::0                    9529    100.00%    100.00% # Request fanout histogram
system.membus.snoop_fanout::1                       0      0.00%    100.00% # Request fanout histogram
system.membus.snoop_fanout::overflows               0      0.00%    100.00% # Request fanout histogram
system.membus.snoop_fanout::min_value               0                       # Request fanout histogram
system.membus.snoop_fanout::max_value               0                       # Request fanout histogram
system.membus.snoop_fanout::total                9529                       # Request fanout histogram
system.membus.reqLayer2.occupancy             9640000                       # Layer occupancy (ticks)
system.membus.reqLayer2.utilization               0.0                       # Layer utilization (%)
system.membus.respLayer1.occupancy           31680750                       # Layer occupancy (ticks)
system.membus.respLayer1.utilization              0.0                       # Layer utilization (%)
system.tol2bus.snoop_filter.tot_requests       104739                       # Total number of requests made to the snoop filter.
system.tol2bus.snoop_filter.hit_single_requests        49388                       # Number of requests hitting in the snoop filter with a single holder of the requested data.
system.tol2bus.snoop_filter.hit_multi_requests            0                       # Number of requests hitting in the snoop filter with multiple (>1) holders of the requested data.
system.tol2bus.snoop_filter.tot_snoops              0                       # Total number of snoops made to the snoop filter.
system.tol2bus.snoop_filter.hit_single_snoops            0                       # Number of snoops hitting in the snoop filter with a single holder of the requested data.
system.tol2bus.snoop_filter.hit_multi_snoops            0                       # Number of snoops hitting in the snoop filter with multiple (>1) holders of the requested data.
system.tol2bus.trans_dist::ReadResp             15291                       # Transaction distribution
system.tol2bus.trans_dist::WritebackDirty        46820                       # Transaction distribution
system.tol2bus.trans_dist::WritebackClean         1215                       # Transaction distribution
system.tol2bus.trans_dist::CleanEvict            1353                       # Transaction distribution
system.tol2bus.trans_dist::ReadExReq            40060                       # Transaction distribution
system.tol2bus.trans_dist::ReadExResp           40060                       # Transaction distribution
system.tol2bus.trans_dist::ReadCleanReq          3082                       # Transaction distribution
system.tol2bus.trans_dist::ReadSharedReq        12209                       # Transaction distribution
system.tol2bus.pkt_count_system.cpu.icache.mem_side::system.l2.cpu_side         7379                       # Packet count per connected master and slave (bytes)
system.tol2bus.pkt_count_system.cpu.dcache.mem_side::system.l2.cpu_side       152711                       # Packet count per connected master and slave (bytes)
system.tol2bus.pkt_count::total                160090                       # Packet count per connected master and slave (bytes)
system.tol2bus.pkt_size_system.cpu.icache.mem_side::system.l2.cpu_side       137504                       # Cumulative packet size per connected master and slave (bytes)
system.tol2bus.pkt_size_system.cpu.dcache.mem_side::system.l2.cpu_side      3170848                       # Cumulative packet size per connected master and slave (bytes)
system.tol2bus.pkt_size::total                3308352                       # Cumulative packet size per connected master and slave (bytes)
system.tol2bus.snoops                               0                       # Total snoops (count)
system.tol2bus.snoop_fanout::samples            55351                       # Request fanout histogram
system.tol2bus.snoop_fanout::mean                   0                       # Request fanout histogram
system.tol2bus.snoop_fanout::stdev                  0                       # Request fanout histogram
system.tol2bus.snoop_fanout::underflows             0      0.00%      0.00% # Request fanout histogram
system.tol2bus.snoop_fanout::0                  55351    100.00%    100.00% # Request fanout histogram
system.tol2bus.snoop_fanout::1                      0      0.00%    100.00% # Request fanout histogram
system.tol2bus.snoop_fanout::2                      0      0.00%    100.00% # Request fanout histogram
system.tol2bus.snoop_fanout::3                      0      0.00%    100.00% # Request fanout histogram
system.tol2bus.snoop_fanout::4                      0      0.00%    100.00% # Request fanout histogram
system.tol2bus.snoop_fanout::overflows              0      0.00%    100.00% # Request fanout histogram
system.tol2bus.snoop_fanout::min_value              0                       # Request fanout histogram
system.tol2bus.snoop_fanout::max_value              0                       # Request fanout histogram
system.tol2bus.snoop_fanout::total              55351                       # Request fanout histogram
system.tol2bus.reqLayer0.occupancy           76387000                       # Layer occupancy (ticks)
system.tol2bus.reqLayer0.utilization              0.1                       # Layer utilization (%)
system.tol2bus.respLayer0.occupancy           3082000                       # Layer occupancy (ticks)
system.tol2bus.respLayer0.utilization             0.0                       # Layer utilization (%)
system.tol2bus.respLayer1.occupancy          52269000                       # Layer occupancy (ticks)
system.tol2bus.respLayer1.utilization             0.1                       # Layer utilization (%)

---------- End Simulation Statistics   ----------
