
---------- Begin Simulation Statistics ----------
sim_seconds                                  0.097214                       # Number of seconds simulated
sim_ticks                                 97214441500                       # Number of ticks simulated
final_tick                                97214441500                       # Number of ticks from beginning of simulation (restored from checkpoints and never reset)
sim_freq                                 1000000000000                       # Frequency of simulated ticks
host_inst_rate                                 516416                       # Simulator instruction rate (inst/s)
host_op_rate                                   671490                       # Simulator op (including micro ops) rate (op/s)
host_tick_rate                             1004061336                       # Simulator tick rate (ticks/s)
host_mem_usage                                 845812                       # Number of bytes of host memory used
host_seconds                                    96.82                       # Real time elapsed on the host
sim_insts                                    50000001                       # Number of instructions simulated
sim_ops                                      65014465                       # Number of ops (including micro ops) simulated
system.voltage_domain.voltage                       1                       # Voltage in Volts
system.clk_domain.clock                          1000                       # Clock period in ticks
system.mem_ctrls.bytes_read::cpu.inst           72352                       # Number of bytes read from this memory
system.mem_ctrls.bytes_read::cpu.data          232576                       # Number of bytes read from this memory
system.mem_ctrls.bytes_read::total             304928                       # Number of bytes read from this memory
system.mem_ctrls.bytes_inst_read::cpu.inst        72352                       # Number of instructions bytes read from this memory
system.mem_ctrls.bytes_inst_read::total         72352                       # Number of instructions bytes read from this memory
system.mem_ctrls.num_reads::cpu.inst             2261                       # Number of read requests responded to by this memory
system.mem_ctrls.num_reads::cpu.data             7268                       # Number of read requests responded to by this memory
system.mem_ctrls.num_reads::total                9529                       # Number of read requests responded to by this memory
system.mem_ctrls.bw_read::cpu.inst             744252                       # Total read bandwidth from this memory (bytes/s)
system.mem_ctrls.bw_read::cpu.data            2392402                       # Total read bandwidth from this memory (bytes/s)
system.mem_ctrls.bw_read::total               3136653                       # Total read bandwidth from this memory (bytes/s)
system.mem_ctrls.bw_inst_read::cpu.inst        744252                       # Instruction read bandwidth from this memory (bytes/s)
system.mem_ctrls.bw_inst_read::total           744252                       # Instruction read bandwidth from this memory (bytes/s)
system.mem_ctrls.bw_total::cpu.inst            744252                       # Total bandwidth to/from this memory (bytes/s)
system.mem_ctrls.bw_total::cpu.data           2392402                       # Total bandwidth to/from this memory (bytes/s)
system.mem_ctrls.bw_total::total              3136653                       # Total bandwidth to/from this memory (bytes/s)
system.mem_ctrls.readReqs                        9529                       # Number of read requests accepted
system.mem_ctrls.writeReqs                          0                       # Number of write requests accepted
system.mem_ctrls.readBursts                      9529                       # Number of DRAM read bursts, including those serviced by the write queue
system.mem_ctrls.writeBursts                        0                       # Number of DRAM write bursts, including those merged in the write queue
system.mem_ctrls.bytesReadDRAM                 609856                       # Total number of bytes read from DRAM
system.mem_ctrls.bytesReadWrQ                       0                       # Total number of bytes read from write queue
system.mem_ctrls.bytesWritten                       0                       # Total number of bytes written to DRAM
system.mem_ctrls.bytesReadSys                  304928                       # Total read bytes from the system interface side
system.mem_ctrls.bytesWrittenSys                    0                       # Total written bytes from the system interface side
system.mem_ctrls.servicedByWrQ                      0                       # Number of DRAM read bursts serviced by the write queue
system.mem_ctrls.mergedWrBursts                     0                       # Number of DRAM write bursts merged with an existing one
system.mem_ctrls.neitherReadNorWriteReqs            0                       # Number of requests that are neither read nor write
system.mem_ctrls.perBankRdBursts::0               500                       # Per bank write bursts
system.mem_ctrls.perBankRdBursts::1               418                       # Per bank write bursts
system.mem_ctrls.perBankRdBursts::2               563                       # Per bank write bursts
system.mem_ctrls.perBankRdBursts::3               354                       # Per bank write bursts
system.mem_ctrls.perBankRdBursts::4               633                       # Per bank write bursts
system.mem_ctrls.perBankRdBursts::5               511                       # Per bank write bursts
system.mem_ctrls.perBankRdBursts::6               405                       # Per bank write bursts
system.mem_ctrls.perBankRdBursts::7               527                       # Per bank write bursts
system.mem_ctrls.perBankRdBursts::8               667                       # Per bank write bursts
system.mem_ctrls.perBankRdBursts::9               711                       # Per bank write bursts
system.mem_ctrls.perBankRdBursts::10              821                       # Per bank write bursts
system.mem_ctrls.perBankRdBursts::11              880                       # Per bank write bursts
system.mem_ctrls.perBankRdBursts::12              693                       # Per bank write bursts
system.mem_ctrls.perBankRdBursts::13              628                       # Per bank write bursts
system.mem_ctrls.perBankRdBursts::14              596                       # Per bank write bursts
system.mem_ctrls.perBankRdBursts::15              622                       # Per bank write bursts
system.mem_ctrls.perBankWrBursts::0                 0                       # Per bank write bursts
system.mem_ctrls.perBankWrBursts::1                 0                       # Per bank write bursts
system.mem_ctrls.perBankWrBursts::2                 0                       # Per bank write bursts
system.mem_ctrls.perBankWrBursts::3                 0                       # Per bank write bursts
system.mem_ctrls.perBankWrBursts::4                 0                       # Per bank write bursts
system.mem_ctrls.perBankWrBursts::5                 0                       # Per bank write bursts
system.mem_ctrls.perBankWrBursts::6                 0                       # Per bank write bursts
system.mem_ctrls.perBankWrBursts::7                 0                       # Per bank write bursts
system.mem_ctrls.perBankWrBursts::8                 0                       # Per bank write bursts
system.mem_ctrls.perBankWrBursts::9                 0                       # Per bank write bursts
system.mem_ctrls.perBankWrBursts::10                0                       # Per bank write bursts
system.mem_ctrls.perBankWrBursts::11                0                       # Per bank write bursts
system.mem_ctrls.perBankWrBursts::12                0                       # Per bank write bursts
system.mem_ctrls.perBankWrBursts::13                0                       # Per bank write bursts
system.mem_ctrls.perBankWrBursts::14                0                       # Per bank write bursts
system.mem_ctrls.perBankWrBursts::15                0                       # Per bank write bursts
system.mem_ctrls.numRdRetry                         0                       # Number of times read queue was full causing retry
system.mem_ctrls.numWrRetry                         0                       # Number of times write queue was full causing retry
system.mem_ctrls.totGap                   94544576500                       # Total gap between requests
system.mem_ctrls.readPktSize::0                     0                       # Read request sizes (log2)
system.mem_ctrls.readPktSize::1                     0                       # Read request sizes (log2)
system.mem_ctrls.readPktSize::2                     0                       # Read request sizes (log2)
system.mem_ctrls.readPktSize::3                     0                       # Read request sizes (log2)
system.mem_ctrls.readPktSize::4                     0                       # Read request sizes (log2)
system.mem_ctrls.readPktSize::5                  9529                       # Read request sizes (log2)
system.mem_ctrls.readPktSize::6                     0                       # Read request sizes (log2)
system.mem_ctrls.writePktSize::0                    0                       # Write request sizes (log2)
system.mem_ctrls.writePktSize::1                    0                       # Write request sizes (log2)
system.mem_ctrls.writePktSize::2                    0                       # Write request sizes (log2)
system.mem_ctrls.writePktSize::3                    0                       # Write request sizes (log2)
system.mem_ctrls.writePktSize::4                    0                       # Write request sizes (log2)
system.mem_ctrls.writePktSize::5                    0                       # Write request sizes (log2)
system.mem_ctrls.writePktSize::6                    0                       # Write request sizes (log2)
system.mem_ctrls.rdQLenPdf::0                    9217                       # What read queue length does an incoming req see
system.mem_ctrls.rdQLenPdf::1                     170                       # What read queue length does an incoming req see
system.mem_ctrls.rdQLenPdf::2                     142                       # What read queue length does an incoming req see
system.mem_ctrls.rdQLenPdf::3                       0                       # What read queue length does an incoming req see
system.mem_ctrls.rdQLenPdf::4                       0                       # What read queue length does an incoming req see
system.mem_ctrls.rdQLenPdf::5                       0                       # What read queue length does an incoming req see
system.mem_ctrls.rdQLenPdf::6                       0                       # What read queue length does an incoming req see
system.mem_ctrls.rdQLenPdf::7                       0                       # What read queue length does an incoming req see
system.mem_ctrls.rdQLenPdf::8                       0                       # What read queue length does an incoming req see
system.mem_ctrls.rdQLenPdf::9                       0                       # What read queue length does an incoming req see
system.mem_ctrls.rdQLenPdf::10                      0                       # What read queue length does an incoming req see
system.mem_ctrls.rdQLenPdf::11                      0                       # What read queue length does an incoming req see
system.mem_ctrls.rdQLenPdf::12                      0                       # What read queue length does an incoming req see
system.mem_ctrls.rdQLenPdf::13                      0                       # What read queue length does an incoming req see
system.mem_ctrls.rdQLenPdf::14                      0                       # What read queue length does an incoming req see
system.mem_ctrls.rdQLenPdf::15                      0                       # What read queue length does an incoming req see
system.mem_ctrls.rdQLenPdf::16                      0                       # What read queue length does an incoming req see
system.mem_ctrls.rdQLenPdf::17                      0                       # What read queue length does an incoming req see
system.mem_ctrls.rdQLenPdf::18                      0                       # What read queue length does an incoming req see
system.mem_ctrls.rdQLenPdf::19                      0                       # What read queue length does an incoming req see
system.mem_ctrls.rdQLenPdf::20                      0                       # What read queue length does an incoming req see
system.mem_ctrls.rdQLenPdf::21                      0                       # What read queue length does an incoming req see
system.mem_ctrls.rdQLenPdf::22                      0                       # What read queue length does an incoming req see
system.mem_ctrls.rdQLenPdf::23                      0                       # What read queue length does an incoming req see
system.mem_ctrls.rdQLenPdf::24                      0                       # What read queue length does an incoming req see
system.mem_ctrls.rdQLenPdf::25                      0                       # What read queue length does an incoming req see
system.mem_ctrls.rdQLenPdf::26                      0                       # What read queue length does an incoming req see
system.mem_ctrls.rdQLenPdf::27                      0                       # What read queue length does an incoming req see
system.mem_ctrls.rdQLenPdf::28                      0                       # What read queue length does an incoming req see
system.mem_ctrls.rdQLenPdf::29                      0                       # What read queue length does an incoming req see
system.mem_ctrls.rdQLenPdf::30                      0                       # What read queue length does an incoming req see
system.mem_ctrls.rdQLenPdf::31                      0                       # What read queue length does an incoming req see
system.mem_ctrls.wrQLenPdf::0                       0                       # What write queue length does an incoming req see
system.mem_ctrls.wrQLenPdf::1                       0                       # What write queue length does an incoming req see
system.mem_ctrls.wrQLenPdf::2                       0                       # What write queue length does an incoming req see
system.mem_ctrls.wrQLenPdf::3                       0                       # What write queue length does an incoming req see
system.mem_ctrls.wrQLenPdf::4                       0                       # What write queue length does an incoming req see
system.mem_ctrls.wrQLenPdf::5                       0                       # What write queue length does an incoming req see
system.mem_ctrls.wrQLenPdf::6                       0                       # What write queue length does an incoming req see
system.mem_ctrls.wrQLenPdf::7                       0                       # What write queue length does an incoming req see
system.mem_ctrls.wrQLenPdf::8                       0                       # What write queue length does an incoming req see
system.mem_ctrls.wrQLenPdf::9                       0                       # What write queue length does an incoming req see
system.mem_ctrls.wrQLenPdf::10                      0                       # What write queue length does an incoming req see
system.mem_ctrls.wrQLenPdf::11                      0                       # What write queue length does an incoming req see
system.mem_ctrls.wrQLenPdf::12                      0                       # What write queue length does an incoming req see
system.mem_ctrls.wrQLenPdf::13                      0                       # What write queue length does an incoming req see
system.mem_ctrls.wrQLenPdf::14                      0                       # What write queue length does an incoming req see
system.mem_ctrls.wrQLenPdf::15                      0                       # What write queue length does an incoming req see
system.mem_ctrls.wrQLenPdf::16                      0                       # What write queue length does an incoming req see
system.mem_ctrls.wrQLenPdf::17                      0                       # What write queue length does an incoming req see
system.mem_ctrls.wrQLenPdf::18                      0                       # What write queue length does an incoming req see
system.mem_ctrls.wrQLenPdf::19                      0                       # What write queue length does an incoming req see
system.mem_ctrls.wrQLenPdf::20                      0                       # What write queue length does an incoming req see
system.mem_ctrls.wrQLenPdf::21                      0                       # What write queue length does an incoming req see
system.mem_ctrls.wrQLenPdf::22                      0                       # What write queue length does an incoming req see
system.mem_ctrls.wrQLenPdf::23                      0                       # What write queue length does an incoming req see
system.mem_ctrls.wrQLenPdf::24                      0                       # What write queue length does an incoming req see
system.mem_ctrls.wrQLenPdf::25                      0                       # What write queue length does an incoming req see
system.mem_ctrls.wrQLenPdf::26                      0                       # What write queue length does an incoming req see
system.mem_ctrls.wrQLenPdf::27                      0                       # What write queue length does an incoming req see
system.mem_ctrls.wrQLenPdf::28                      0                       # What write queue length does an incoming req see
system.mem_ctrls.wrQLenPdf::29                      0                       # What write queue length does an incoming req see
system.mem_ctrls.wrQLenPdf::30                      0                       # What write queue length does an incoming req see
system.mem_ctrls.wrQLenPdf::31                      0                       # What write queue length does an incoming req see
system.mem_ctrls.wrQLenPdf::32                      0                       # What write queue length does an incoming req see
system.mem_ctrls.wrQLenPdf::33                      0                       # What write queue length does an incoming req see
system.mem_ctrls.wrQLenPdf::34                      0                       # What write queue length does an incoming req see
system.mem_ctrls.wrQLenPdf::35                      0                       # What write queue length does an incoming req see
system.mem_ctrls.wrQLenPdf::36                      0                       # What write queue length does an incoming req see
system.mem_ctrls.wrQLenPdf::37                      0                       # What write queue length does an incoming req see
system.mem_ctrls.wrQLenPdf::38                      0                       # What write queue length does an incoming req see
system.mem_ctrls.wrQLenPdf::39                      0                       # What write queue length does an incoming req see
system.mem_ctrls.wrQLenPdf::40                      0                       # What write queue length does an incoming req see
system.mem_ctrls.wrQLenPdf::41                      0                       # What write queue length does an incoming req see
system.mem_ctrls.wrQLenPdf::42                      0                       # What write queue length does an incoming req see
system.mem_ctrls.wrQLenPdf::43                      0                       # What write queue length does an incoming req see
system.mem_ctrls.wrQLenPdf::44                      0                       # What write queue length does an incoming req see
system.mem_ctrls.wrQLenPdf::45                      0                       # What write queue length does an incoming req see
system.mem_ctrls.wrQLenPdf::46                      0                       # What write queue length does an incoming req see
system.mem_ctrls.wrQLenPdf::47                      0                       # What write queue length does an incoming req see
system.mem_ctrls.wrQLenPdf::48                      0                       # What write queue length does an incoming req see
system.mem_ctrls.wrQLenPdf::49                      0                       # What write queue length does an incoming req see
system.mem_ctrls.wrQLenPdf::50                      0                       # What write queue length does an incoming req see
system.mem_ctrls.wrQLenPdf::51                      0                       # What write queue length does an incoming req see
system.mem_ctrls.wrQLenPdf::52                      0                       # What write queue length does an incoming req see
system.mem_ctrls.wrQLenPdf::53                      0                       # What write queue length does an incoming req see
system.mem_ctrls.wrQLenPdf::54                      0                       # What write queue length does an incoming req see
system.mem_ctrls.wrQLenPdf::55                      0                       # What write queue length does an incoming req see
system.mem_ctrls.wrQLenPdf::56                      0                       # What write queue length does an incoming req see
system.mem_ctrls.wrQLenPdf::57                      0                       # What write queue length does an incoming req see
system.mem_ctrls.wrQLenPdf::58                      0                       # What write queue length does an incoming req see
system.mem_ctrls.wrQLenPdf::59                      0                       # What write queue length does an incoming req see
system.mem_ctrls.wrQLenPdf::60                      0                       # What write queue length does an incoming req see
system.mem_ctrls.wrQLenPdf::61                      0                       # What write queue length does an incoming req see
system.mem_ctrls.wrQLenPdf::62                      0                       # What write queue length does an incoming req see
system.mem_ctrls.wrQLenPdf::63                      0                       # What write queue length does an incoming req see
system.mem_ctrls.bytesPerActivate::samples         2696                       # Bytes accessed per row activation
system.mem_ctrls.bytesPerActivate::mean    226.207715                       # Bytes accessed per row activation
system.mem_ctrls.bytesPerActivate::gmean   150.247720                       # Bytes accessed per row activation
system.mem_ctrls.bytesPerActivate::stdev   267.794474                       # Bytes accessed per row activation
system.mem_ctrls.bytesPerActivate::0-127          674     25.00%     25.00% # Bytes accessed per row activation
system.mem_ctrls.bytesPerActivate::128-255         1448     53.71%     78.71% # Bytes accessed per row activation
system.mem_ctrls.bytesPerActivate::256-383          157      5.82%     84.53% # Bytes accessed per row activation
system.mem_ctrls.bytesPerActivate::384-511           87      3.23%     87.76% # Bytes accessed per row activation
system.mem_ctrls.bytesPerActivate::512-639           49      1.82%     89.58% # Bytes accessed per row activation
system.mem_ctrls.bytesPerActivate::640-767           33      1.22%     90.80% # Bytes accessed per row activation
system.mem_ctrls.bytesPerActivate::768-895           17      0.63%     91.43% # Bytes accessed per row activation
system.mem_ctrls.bytesPerActivate::896-1023           32      1.19%     92.62% # Bytes accessed per row activation
system.mem_ctrls.bytesPerActivate::1024-1151          199      7.38%    100.00% # Bytes accessed per row activation
system.mem_ctrls.bytesPerActivate::total         2696                       # Bytes accessed per row activation
system.mem_ctrls.totQLat                     79280000                       # Total ticks spent queuing
system.mem_ctrls.totMemAccLat               257948750                       # Total ticks spent from burst creation until serviced by the DRAM
system.mem_ctrls.totBusLat                   47645000                       # Total ticks spent in databus transfers
system.mem_ctrls.avgQLat                      8319.87                       # Average queueing delay per DRAM burst
system.mem_ctrls.avgBusLat                    5000.00                       # Average bus latency per DRAM burst
system.mem_ctrls.avgMemAccLat                27069.87                       # Average memory access latency per DRAM burst
system.mem_ctrls.avgRdBW                         6.27                       # Average DRAM read bandwidth in MiByte/s
system.mem_ctrls.avgWrBW                         0.00                       # Average achieved write bandwidth in MiByte/s
system.mem_ctrls.avgRdBWSys                      3.14                       # Average system read bandwidth in MiByte/s
system.mem_ctrls.avgWrBWSys                      0.00                       # Average system write bandwidth in MiByte/s
system.mem_ctrls.peakBW                      12800.00                       # Theoretical peak bandwidth in MiByte/s
system.mem_ctrls.busUtil                         0.05                       # Data bus utilization in percentage
system.mem_ctrls.busUtilRead                     0.05                       # Data bus utilization in percentage for reads
system.mem_ctrls.busUtilWrite                    0.00                       # Data bus utilization in percentage for writes
system.mem_ctrls.avgRdQLen                       1.00                       # Average read queue length when enqueuing
system.mem_ctrls.avgWrQLen                       0.00                       # Average write queue length when enqueuing
system.mem_ctrls.readRowHits                     6833                       # Number of row buffer hits during reads
system.mem_ctrls.writeRowHits                       0                       # Number of row buffer hits during writes
system.mem_ctrls.readRowHitRate                 71.71                       # Row buffer hit rate for reads
system.mem_ctrls.writeRowHitRate                  nan                       # Row buffer hit rate for writes
system.mem_ctrls.avgGap                    9921773.17                       # Average gap between requests
system.mem_ctrls.pageHitRate                    71.71                       # Row buffer hit rate, read and write combined
system.mem_ctrls_0.actEnergy                  9185400                       # Energy for activate commands per rank (pJ)
system.mem_ctrls_0.preEnergy                  5011875                       # Energy for precharge commands per rank (pJ)
system.mem_ctrls_0.readEnergy                30505800                       # Energy for read commands per rank (pJ)
system.mem_ctrls_0.writeEnergy                      0                       # Energy for write commands per rank (pJ)
system.mem_ctrls_0.refreshEnergy           6349371600                       # Energy for refresh commands per rank (pJ)
system.mem_ctrls_0.actBackEnergy           4476314025                       # Energy for active background per rank (pJ)
system.mem_ctrls_0.preBackEnergy          54400355250                       # Energy for precharge background per rank (pJ)
system.mem_ctrls_0.totalEnergy            65270743950                       # Total energy per rank (pJ)
system.mem_ctrls_0.averagePower            671.429737                       # Core power per rank (mW)
system.mem_ctrls_0.memoryStateTime::IDLE  90486025250                       # Time in different power states
system.mem_ctrls_0.memoryStateTime::REF    3246100000                       # Time in different power states
system.mem_ctrls_0.memoryStateTime::PRE_PDN            0                       # Time in different power states
system.mem_ctrls_0.memoryStateTime::ACT    3479466000                       # Time in different power states
system.mem_ctrls_0.memoryStateTime::ACT_PDN            0                       # Time in different power states
system.mem_ctrls_1.actEnergy                 11196360                       # Energy for activate commands per rank (pJ)
system.mem_ctrls_1.preEnergy                  6109125                       # Energy for precharge commands per rank (pJ)
system.mem_ctrls_1.readEnergy                43820400                       # Energy for read commands per rank (pJ)
system.mem_ctrls_1.writeEnergy                      0                       # Energy for write commands per rank (pJ)
system.mem_ctrls_1.refreshEnergy           6349371600                       # Energy for refresh commands per rank (pJ)
system.mem_ctrls_1.actBackEnergy           4787699895                       # Energy for active background per rank (pJ)
system.mem_ctrls_1.preBackEnergy          54127209750                       # Energy for precharge background per rank (pJ)
system.mem_ctrls_1.totalEnergy            65325407130                       # Total energy per rank (pJ)
system.mem_ctrls_1.averagePower            671.992049                       # Core power per rank (mW)
system.mem_ctrls_1.memoryStateTime::IDLE  90030522000                       # Time in different power states
system.mem_ctrls_1.memoryStateTime::REF    3246100000                       # Time in different power states
system.mem_ctrls_1.memoryStateTime::PRE_PDN            0                       # Time in different power states
system.mem_ctrls_1.memoryStateTime::ACT    3934969250                       # Time in different power states
system.mem_ctrls_1.memoryStateTime::ACT_PDN            0                       # Time in different power states
system.cpu.branchPred.lookups                 2859327                       # Number of BP lookups
system.cpu.branchPred.condPredicted           2859327                       # Number of conditional branches predicted
system.cpu.branchPred.condIncorrect            273192                       # Number of conditional branches incorrect
system.cpu.branchPred.BTBLookups              2055348                       # Number of BTB lookups
system.cpu.branchPred.BTBHits                 2033332                       # Number of BTB hits
system.cpu.branchPred.BTBCorrect                    0                       # Number of correct BTB predictions (this stat may not work properly.
system.cpu.branchPred.BTBHitPct             98.928843                       # BTB Hit Percentage
system.cpu.branchPred.BTBMissPct             1.071157                       # BTB Miss Percentage
system.cpu.branchPred.usedRAS                   82194                       # Number of times the RAS was used to get a target.
system.cpu.branchPred.RASInCorrect                827                       # Number of incorrect RAS predictions.
system.cpu_voltage_domain.voltage                   1                       # Voltage in Volts
system.cpu_clk_domain.clock                       500                       # Clock period in ticks
system.cpu.apic_clk_domain.clock                 8000                       # Clock period in ticks
system.cpu.workload.num_syscalls                   34                       # Number of system calls
system.cpu.numCycles                        194428883                       # number of cpu cycles simulated
system.cpu.numWorkItemsStarted                      0                       # number of work items this cpu started
system.cpu.numWorkItemsCompleted                    0                       # number of work items this cpu completed
system.cpu.committedInsts                    50000001                       # Number of instructions committed
system.cpu.committedOps                      65014465                       # Number of ops (including micro ops) committed
system.cpu.num_int_alu_accesses              62933457                       # Number of integer alu accesses
system.cpu.num_fp_alu_accesses                2948954                       # Number of float alu accesses
system.cpu.num_func_calls                      164791                       # number of times a function call or return occured
system.cpu.num_conditional_control_insts      2606507                       # number of instructions that are conditional controls
system.cpu.num_int_insts                     62933457                       # number of integer instructions
system.cpu.num_fp_insts                       2948954                       # number of float instructions
system.cpu.num_int_register_reads           147292995                       # number of times the integer registers were read
system.cpu.num_int_register_writes           57136355                       # number of times the integer registers were written
system.cpu.num_fp_register_reads              2505840                       # number of times the floating registers were read
system.cpu.num_fp_register_writes             2527243                       # number of times the floating registers were written
system.cpu.num_cc_register_reads             19215973                       # number of times the CC registers were read
system.cpu.num_cc_register_writes            26132447                       # number of times the CC registers were written
system.cpu.num_mem_refs                      25502514                       # number of memory refs
system.cpu.num_load_insts                    21863457                       # Number of load instructions
system.cpu.num_store_insts                    3639057                       # Number of store instructions
system.cpu.num_idle_cycles                          0                       # Number of idle cycles
system.cpu.num_busy_cycles                  194428883                       # Number of busy cycles
system.cpu.not_idle_fraction                        1                       # Percentage of non-idle cycles
system.cpu.idle_fraction                            0                       # Percentage of idle cycles
system.cpu.Branches                           2859327                       # Number of branches fetched
system.cpu.predictedBranches                  2115526                       # Number of branches predicted as taken
system.cpu.BranchMispred                       273192                       # Number of branch mispredictions
system.cpu.numBranchMispreadPercent          9.554416                       # Number of Branch Mispread Percent
system.cpu.op_class::No_OpClass                195747      0.30%      0.30% # Class of executed instruction
system.cpu.op_class::IntAlu                  36732834     56.50%     56.80% # Class of executed instruction
system.cpu.op_class::IntMult                    70748      0.11%     56.91% # Class of executed instruction
system.cpu.op_class::IntDiv                    629626      0.97%     57.88% # Class of executed instruction
system.cpu.op_class::FloatAdd                 1882996      2.90%     60.77% # Class of executed instruction
system.cpu.op_class::FloatCmp                       0      0.00%     60.77% # Class of executed instruction
system.cpu.op_class::FloatCvt                       0      0.00%     60.77% # Class of executed instruction
system.cpu.op_class::FloatMult                      0      0.00%     60.77% # Class of executed instruction
system.cpu.op_class::FloatDiv                       0      0.00%     60.77% # Class of executed instruction
system.cpu.op_class::FloatSqrt                      0      0.00%     60.77% # Class of executed instruction
system.cpu.op_class::SimdAdd                        0      0.00%     60.77% # Class of executed instruction
system.cpu.op_class::SimdAddAcc                     0      0.00%     60.77% # Class of executed instruction
system.cpu.op_class::SimdAlu                        0      0.00%     60.77% # Class of executed instruction
system.cpu.op_class::SimdCmp                        0      0.00%     60.77% # Class of executed instruction
system.cpu.op_class::SimdCvt                        0      0.00%     60.77% # Class of executed instruction
system.cpu.op_class::SimdMisc                       0      0.00%     60.77% # Class of executed instruction
system.cpu.op_class::SimdMult                       0      0.00%     60.77% # Class of executed instruction
system.cpu.op_class::SimdMultAcc                    0      0.00%     60.77% # Class of executed instruction
system.cpu.op_class::SimdShift                      0      0.00%     60.77% # Class of executed instruction
system.cpu.op_class::SimdShiftAcc                   0      0.00%     60.77% # Class of executed instruction
system.cpu.op_class::SimdSqrt                       0      0.00%     60.77% # Class of executed instruction
system.cpu.op_class::SimdFloatAdd                   0      0.00%     60.77% # Class of executed instruction
system.cpu.op_class::SimdFloatAlu                   0      0.00%     60.77% # Class of executed instruction
system.cpu.op_class::SimdFloatCmp                   0      0.00%     60.77% # Class of executed instruction
system.cpu.op_class::SimdFloatCvt                   0      0.00%     60.77% # Class of executed instruction
system.cpu.op_class::SimdFloatDiv                   0      0.00%     60.77% # Class of executed instruction
system.cpu.op_class::SimdFloatMisc                  0      0.00%     60.77% # Class of executed instruction
system.cpu.op_class::SimdFloatMult                  0      0.00%     60.77% # Class of executed instruction
system.cpu.op_class::SimdFloatMultAcc               0      0.00%     60.77% # Class of executed instruction
system.cpu.op_class::SimdFloatSqrt                  0      0.00%     60.77% # Class of executed instruction
system.cpu.op_class::MemRead                 21863457     33.63%     94.40% # Class of executed instruction
system.cpu.op_class::MemWrite                 3639057      5.60%    100.00% # Class of executed instruction
system.cpu.op_class::IprAccess                      0      0.00%    100.00% # Class of executed instruction
system.cpu.op_class::InstPrefetch                   0      0.00%    100.00% # Class of executed instruction
system.cpu.op_class::total                   65014465                       # Class of executed instruction
system.cpu.dcache.tags.replacements            122553                       # number of replacements
system.cpu.dcache.tags.tagsinuse          2017.854334                       # Cycle average of tags in use
system.cpu.dcache.tags.total_refs            25379526                       # Total number of references to valid blocks.
system.cpu.dcache.tags.sampled_refs            124601                       # Sample count of references to valid blocks.
system.cpu.dcache.tags.avg_refs            203.686375                       # Average number of references to valid blocks.
system.cpu.dcache.tags.warmup_cycle        8510795500                       # Cycle when the warmup percentage was hit.
system.cpu.dcache.tags.occ_blocks::cpu.data  2017.854334                       # Average occupied blocks per requestor
system.cpu.dcache.tags.occ_percent::cpu.data     0.985280                       # Average percentage of cache occupancy
system.cpu.dcache.tags.occ_percent::total     0.985280                       # Average percentage of cache occupancy
system.cpu.dcache.tags.occ_task_id_blocks::1024         2048                       # Occupied blocks per task id
system.cpu.dcache.tags.age_task_id_blocks_1024::0           12                       # Occupied blocks per task id
system.cpu.dcache.tags.age_task_id_blocks_1024::1           58                       # Occupied blocks per task id
system.cpu.dcache.tags.age_task_id_blocks_1024::2          191                       # Occupied blocks per task id
system.cpu.dcache.tags.age_task_id_blocks_1024::3         1787                       # Occupied blocks per task id
system.cpu.dcache.tags.occ_task_id_percent::1024            1                       # Percentage of cache occupancy per task id
system.cpu.dcache.tags.tag_accesses          25628728                       # Number of tag accesses
system.cpu.dcache.tags.data_accesses         25628728                       # Number of data accesses
system.cpu.dcache.ReadReq_hits::cpu.data     21812315                       # number of ReadReq hits
system.cpu.dcache.ReadReq_hits::total        21812315                       # number of ReadReq hits
system.cpu.dcache.WriteReq_hits::cpu.data      3566218                       # number of WriteReq hits
system.cpu.dcache.WriteReq_hits::total        3566218                       # number of WriteReq hits
system.cpu.dcache.SoftPFReq_hits::cpu.data          993                       # number of SoftPFReq hits
system.cpu.dcache.SoftPFReq_hits::total           993                       # number of SoftPFReq hits
system.cpu.dcache.demand_hits::cpu.data      25378533                       # number of demand (read+write) hits
system.cpu.dcache.demand_hits::total         25378533                       # number of demand (read+write) hits
system.cpu.dcache.overall_hits::cpu.data     25379526                       # number of overall hits
system.cpu.dcache.overall_hits::total        25379526                       # number of overall hits
system.cpu.dcache.ReadReq_misses::cpu.data        49707                       # number of ReadReq misses
system.cpu.dcache.ReadReq_misses::total         49707                       # number of ReadReq misses
system.cpu.dcache.WriteReq_misses::cpu.data        72941                       # number of WriteReq misses
system.cpu.dcache.WriteReq_misses::total        72941                       # number of WriteReq misses
system.cpu.dcache.SoftPFReq_misses::cpu.data         1953                       # number of SoftPFReq misses
system.cpu.dcache.SoftPFReq_misses::total         1953                       # number of SoftPFReq misses
system.cpu.dcache.demand_misses::cpu.data       122648                       # number of demand (read+write) misses
system.cpu.dcache.demand_misses::total         122648                       # number of demand (read+write) misses
system.cpu.dcache.overall_misses::cpu.data       124601                       # number of overall misses
system.cpu.dcache.overall_misses::total        124601                       # number of overall misses
system.cpu.dcache.ReadReq_miss_latency::cpu.data    721393500                       # number of ReadReq miss cycles
system.cpu.dcache.ReadReq_miss_latency::total    721393500                       # number of ReadReq miss cycles
system.cpu.dcache.WriteReq_miss_latency::cpu.data   1337804500                       # number of WriteReq miss cycles
system.cpu.dcache.WriteReq_miss_latency::total   1337804500                       # number of WriteReq miss cycles
system.cpu.dcache.demand_miss_latency::cpu.data   2059198000                       # number of demand (read+write) miss cycles
system.cpu.dcache.demand_miss_latency::total   2059198000                       # number of demand (read+write) miss cycles
system.cpu.dcache.overall_miss_latency::cpu.data   2059198000                       # number of overall miss cycles
system.cpu.dcache.overall_miss_latency::total   2059198000                       # number of overall miss cycles
system.cpu.dcache.ReadReq_accesses::cpu.data     21862022                       # number of ReadReq accesses(hits+misses)
system.cpu.dcache.ReadReq_accesses::total     21862022                       # number of ReadReq accesses(hits+misses)
system.cpu.dcache.WriteReq_accesses::cpu.data      3639159                       # number of WriteReq accesses(hits+misses)
system.cpu.dcache.WriteReq_accesses::total      3639159                       # number of WriteReq accesses(hits+misses)
system.cpu.dcache.SoftPFReq_accesses::cpu.data         2946                       # number of SoftPFReq accesses(hits+misses)
system.cpu.dcache.SoftPFReq_accesses::total         2946                       # number of SoftPFReq accesses(hits+misses)
system.cpu.dcache.demand_accesses::cpu.data     25501181                       # number of demand (read+write) accesses
system.cpu.dcache.demand_accesses::total     25501181                       # number of demand (read+write) accesses
system.cpu.dcache.overall_accesses::cpu.data     25504127                       # number of overall (read+write) accesses
system.cpu.dcache.overall_accesses::total     25504127                       # number of overall (read+write) accesses
system.cpu.dcache.ReadReq_miss_rate::cpu.data     0.002274                       # miss rate for ReadReq accesses
system.cpu.dcache.ReadReq_miss_rate::total     0.002274                       # miss rate for ReadReq accesses
system.cpu.dcache.WriteReq_miss_rate::cpu.data     0.020043                       # miss rate for WriteReq accesses
system.cpu.dcache.WriteReq_miss_rate::total     0.020043                       # miss rate for WriteReq accesses
system.cpu.dcache.SoftPFReq_miss_rate::cpu.data     0.662933                       # miss rate for SoftPFReq accesses
system.cpu.dcache.SoftPFReq_miss_rate::total     0.662933                       # miss rate for SoftPFReq accesses
system.cpu.dcache.demand_miss_rate::cpu.data     0.004810                       # miss rate for demand accesses
system.cpu.dcache.demand_miss_rate::total     0.004810                       # miss rate for demand accesses
system.cpu.dcache.overall_miss_rate::cpu.data     0.004886                       # miss rate for overall accesses
system.cpu.dcache.overall_miss_rate::total     0.004886                       # miss rate for overall accesses
system.cpu.dcache.ReadReq_avg_miss_latency::cpu.data 14512.915686                       # average ReadReq miss latency
system.cpu.dcache.ReadReq_avg_miss_latency::total 14512.915686                       # average ReadReq miss latency
system.cpu.dcache.WriteReq_avg_miss_latency::cpu.data 18340.912518                       # average WriteReq miss latency
system.cpu.dcache.WriteReq_avg_miss_latency::total 18340.912518                       # average WriteReq miss latency
system.cpu.dcache.demand_avg_miss_latency::cpu.data 16789.495141                       # average overall miss latency
system.cpu.dcache.demand_avg_miss_latency::total 16789.495141                       # average overall miss latency
system.cpu.dcache.overall_avg_miss_latency::cpu.data 16526.336065                       # average overall miss latency
system.cpu.dcache.overall_avg_miss_latency::total 16526.336065                       # average overall miss latency
system.cpu.dcache.blocked_cycles::no_mshrs            0                       # number of cycles access was blocked
system.cpu.dcache.blocked_cycles::no_targets            0                       # number of cycles access was blocked
system.cpu.dcache.blocked::no_mshrs                 0                       # number of cycles access was blocked
system.cpu.dcache.blocked::no_targets               0                       # number of cycles access was blocked
system.cpu.dcache.avg_blocked_cycles::no_mshrs          nan                       # average number of cycles each access was blocked
system.cpu.dcache.avg_blocked_cycles::no_targets          nan                       # average number of cycles each access was blocked
system.cpu.dcache.fast_writes                       0                       # number of fast writes performed
system.cpu.dcache.cache_copies                      0                       # number of cache copies performed
system.cpu.dcache.writebacks::writebacks       120889                       # number of writebacks
system.cpu.dcache.writebacks::total            120889                       # number of writebacks
system.cpu.dcache.ReadReq_mshr_misses::cpu.data        49707                       # number of ReadReq MSHR misses
system.cpu.dcache.ReadReq_mshr_misses::total        49707                       # number of ReadReq MSHR misses
system.cpu.dcache.WriteReq_mshr_misses::cpu.data        72941                       # number of WriteReq MSHR misses
system.cpu.dcache.WriteReq_mshr_misses::total        72941                       # number of WriteReq MSHR misses
system.cpu.dcache.SoftPFReq_mshr_misses::cpu.data         1953                       # number of SoftPFReq MSHR misses
system.cpu.dcache.SoftPFReq_mshr_misses::total         1953                       # number of SoftPFReq MSHR misses
system.cpu.dcache.demand_mshr_misses::cpu.data       122648                       # number of demand (read+write) MSHR misses
system.cpu.dcache.demand_mshr_misses::total       122648                       # number of demand (read+write) MSHR misses
system.cpu.dcache.overall_mshr_misses::cpu.data       124601                       # number of overall MSHR misses
system.cpu.dcache.overall_mshr_misses::total       124601                       # number of overall MSHR misses
system.cpu.dcache.ReadReq_mshr_miss_latency::cpu.data    671686500                       # number of ReadReq MSHR miss cycles
system.cpu.dcache.ReadReq_mshr_miss_latency::total    671686500                       # number of ReadReq MSHR miss cycles
system.cpu.dcache.WriteReq_mshr_miss_latency::cpu.data   1264863500                       # number of WriteReq MSHR miss cycles
system.cpu.dcache.WriteReq_mshr_miss_latency::total   1264863500                       # number of WriteReq MSHR miss cycles
system.cpu.dcache.SoftPFReq_mshr_miss_latency::cpu.data     45751000                       # number of SoftPFReq MSHR miss cycles
system.cpu.dcache.SoftPFReq_mshr_miss_latency::total     45751000                       # number of SoftPFReq MSHR miss cycles
system.cpu.dcache.demand_mshr_miss_latency::cpu.data   1936550000                       # number of demand (read+write) MSHR miss cycles
system.cpu.dcache.demand_mshr_miss_latency::total   1936550000                       # number of demand (read+write) MSHR miss cycles
system.cpu.dcache.overall_mshr_miss_latency::cpu.data   1982301000                       # number of overall MSHR miss cycles
system.cpu.dcache.overall_mshr_miss_latency::total   1982301000                       # number of overall MSHR miss cycles
system.cpu.dcache.ReadReq_mshr_miss_rate::cpu.data     0.002274                       # mshr miss rate for ReadReq accesses
system.cpu.dcache.ReadReq_mshr_miss_rate::total     0.002274                       # mshr miss rate for ReadReq accesses
system.cpu.dcache.WriteReq_mshr_miss_rate::cpu.data     0.020043                       # mshr miss rate for WriteReq accesses
system.cpu.dcache.WriteReq_mshr_miss_rate::total     0.020043                       # mshr miss rate for WriteReq accesses
system.cpu.dcache.SoftPFReq_mshr_miss_rate::cpu.data     0.662933                       # mshr miss rate for SoftPFReq accesses
system.cpu.dcache.SoftPFReq_mshr_miss_rate::total     0.662933                       # mshr miss rate for SoftPFReq accesses
system.cpu.dcache.demand_mshr_miss_rate::cpu.data     0.004810                       # mshr miss rate for demand accesses
system.cpu.dcache.demand_mshr_miss_rate::total     0.004810                       # mshr miss rate for demand accesses
system.cpu.dcache.overall_mshr_miss_rate::cpu.data     0.004886                       # mshr miss rate for overall accesses
system.cpu.dcache.overall_mshr_miss_rate::total     0.004886                       # mshr miss rate for overall accesses
system.cpu.dcache.ReadReq_avg_mshr_miss_latency::cpu.data 13512.915686                       # average ReadReq mshr miss latency
system.cpu.dcache.ReadReq_avg_mshr_miss_latency::total 13512.915686                       # average ReadReq mshr miss latency
system.cpu.dcache.WriteReq_avg_mshr_miss_latency::cpu.data 17340.912518                       # average WriteReq mshr miss latency
system.cpu.dcache.WriteReq_avg_mshr_miss_latency::total 17340.912518                       # average WriteReq mshr miss latency
system.cpu.dcache.SoftPFReq_avg_mshr_miss_latency::cpu.data 23426.011265                       # average SoftPFReq mshr miss latency
system.cpu.dcache.SoftPFReq_avg_mshr_miss_latency::total 23426.011265                       # average SoftPFReq mshr miss latency
system.cpu.dcache.demand_avg_mshr_miss_latency::cpu.data 15789.495141                       # average overall mshr miss latency
system.cpu.dcache.demand_avg_mshr_miss_latency::total 15789.495141                       # average overall mshr miss latency
system.cpu.dcache.overall_avg_mshr_miss_latency::cpu.data 15909.190135                       # average overall mshr miss latency
system.cpu.dcache.overall_avg_mshr_miss_latency::total 15909.190135                       # average overall mshr miss latency
system.cpu.dcache.no_allocate_misses                0                       # Number of misses that were no-allocate
system.cpu.dtb_walker_cache.tags.replacements            0                       # number of replacements
system.cpu.dtb_walker_cache.tags.tagsinuse            0                       # Cycle average of tags in use
system.cpu.dtb_walker_cache.tags.total_refs            0                       # Total number of references to valid blocks.
system.cpu.dtb_walker_cache.tags.sampled_refs            0                       # Sample count of references to valid blocks.
system.cpu.dtb_walker_cache.tags.avg_refs          nan                       # Average number of references to valid blocks.
system.cpu.dtb_walker_cache.tags.warmup_cycle            0                       # Cycle when the warmup percentage was hit.
system.cpu.dtb_walker_cache.tags.tag_accesses            0                       # Number of tag accesses
system.cpu.dtb_walker_cache.tags.data_accesses            0                       # Number of data accesses
system.cpu.dtb_walker_cache.blocked_cycles::no_mshrs            0                       # number of cycles access was blocked
system.cpu.dtb_walker_cache.blocked_cycles::no_targets            0                       # number of cycles access was blocked
system.cpu.dtb_walker_cache.blocked::no_mshrs            0                       # number of cycles access was blocked
system.cpu.dtb_walker_cache.blocked::no_targets            0                       # number of cycles access was blocked
system.cpu.dtb_walker_cache.avg_blocked_cycles::no_mshrs          nan                       # average number of cycles each access was blocked
system.cpu.dtb_walker_cache.avg_blocked_cycles::no_targets          nan                       # average number of cycles each access was blocked
system.cpu.dtb_walker_cache.fast_writes             0                       # number of fast writes performed
system.cpu.dtb_walker_cache.cache_copies            0                       # number of cache copies performed
system.cpu.dtb_walker_cache.no_allocate_misses            0                       # Number of misses that were no-allocate
system.cpu.icache.tags.replacements              3644                       # number of replacements
system.cpu.icache.tags.tagsinuse          1431.836012                       # Cycle average of tags in use
system.cpu.icache.tags.total_refs            69562786                       # Total number of references to valid blocks.
system.cpu.icache.tags.sampled_refs              5085                       # Sample count of references to valid blocks.
system.cpu.icache.tags.avg_refs          13679.997247                       # Average number of references to valid blocks.
system.cpu.icache.tags.warmup_cycle                 0                       # Cycle when the warmup percentage was hit.
system.cpu.icache.tags.occ_blocks::cpu.inst  1431.836012                       # Average occupied blocks per requestor
system.cpu.icache.tags.occ_percent::cpu.inst     0.699139                       # Average percentage of cache occupancy
system.cpu.icache.tags.occ_percent::total     0.699139                       # Average percentage of cache occupancy
system.cpu.icache.tags.occ_task_id_blocks::1024         1441                       # Occupied blocks per task id
system.cpu.icache.tags.age_task_id_blocks_1024::2           10                       # Occupied blocks per task id
system.cpu.icache.tags.age_task_id_blocks_1024::3           21                       # Occupied blocks per task id
system.cpu.icache.tags.age_task_id_blocks_1024::4         1410                       # Occupied blocks per task id
system.cpu.icache.tags.occ_task_id_percent::1024     0.703613                       # Percentage of cache occupancy per task id
system.cpu.icache.tags.tag_accesses          69572956                       # Number of tag accesses
system.cpu.icache.tags.data_accesses         69572956                       # Number of data accesses
system.cpu.icache.ReadReq_hits::cpu.inst     69562786                       # number of ReadReq hits
system.cpu.icache.ReadReq_hits::total        69562786                       # number of ReadReq hits
system.cpu.icache.demand_hits::cpu.inst      69562786                       # number of demand (read+write) hits
system.cpu.icache.demand_hits::total         69562786                       # number of demand (read+write) hits
system.cpu.icache.overall_hits::cpu.inst     69562786                       # number of overall hits
system.cpu.icache.overall_hits::total        69562786                       # number of overall hits
system.cpu.icache.ReadReq_misses::cpu.inst         5085                       # number of ReadReq misses
system.cpu.icache.ReadReq_misses::total          5085                       # number of ReadReq misses
system.cpu.icache.demand_misses::cpu.inst         5085                       # number of demand (read+write) misses
system.cpu.icache.demand_misses::total           5085                       # number of demand (read+write) misses
system.cpu.icache.overall_misses::cpu.inst         5085                       # number of overall misses
system.cpu.icache.overall_misses::total          5085                       # number of overall misses
system.cpu.icache.ReadReq_miss_latency::cpu.inst    211800500                       # number of ReadReq miss cycles
system.cpu.icache.ReadReq_miss_latency::total    211800500                       # number of ReadReq miss cycles
system.cpu.icache.demand_miss_latency::cpu.inst    211800500                       # number of demand (read+write) miss cycles
system.cpu.icache.demand_miss_latency::total    211800500                       # number of demand (read+write) miss cycles
system.cpu.icache.overall_miss_latency::cpu.inst    211800500                       # number of overall miss cycles
system.cpu.icache.overall_miss_latency::total    211800500                       # number of overall miss cycles
system.cpu.icache.ReadReq_accesses::cpu.inst     69567871                       # number of ReadReq accesses(hits+misses)
system.cpu.icache.ReadReq_accesses::total     69567871                       # number of ReadReq accesses(hits+misses)
system.cpu.icache.demand_accesses::cpu.inst     69567871                       # number of demand (read+write) accesses
system.cpu.icache.demand_accesses::total     69567871                       # number of demand (read+write) accesses
system.cpu.icache.overall_accesses::cpu.inst     69567871                       # number of overall (read+write) accesses
system.cpu.icache.overall_accesses::total     69567871                       # number of overall (read+write) accesses
system.cpu.icache.ReadReq_miss_rate::cpu.inst     0.000073                       # miss rate for ReadReq accesses
system.cpu.icache.ReadReq_miss_rate::total     0.000073                       # miss rate for ReadReq accesses
system.cpu.icache.demand_miss_rate::cpu.inst     0.000073                       # miss rate for demand accesses
system.cpu.icache.demand_miss_rate::total     0.000073                       # miss rate for demand accesses
system.cpu.icache.overall_miss_rate::cpu.inst     0.000073                       # miss rate for overall accesses
system.cpu.icache.overall_miss_rate::total     0.000073                       # miss rate for overall accesses
system.cpu.icache.ReadReq_avg_miss_latency::cpu.inst 41652.015733                       # average ReadReq miss latency
system.cpu.icache.ReadReq_avg_miss_latency::total 41652.015733                       # average ReadReq miss latency
system.cpu.icache.demand_avg_miss_latency::cpu.inst 41652.015733                       # average overall miss latency
system.cpu.icache.demand_avg_miss_latency::total 41652.015733                       # average overall miss latency
system.cpu.icache.overall_avg_miss_latency::cpu.inst 41652.015733                       # average overall miss latency
system.cpu.icache.overall_avg_miss_latency::total 41652.015733                       # average overall miss latency
system.cpu.icache.blocked_cycles::no_mshrs            0                       # number of cycles access was blocked
system.cpu.icache.blocked_cycles::no_targets            0                       # number of cycles access was blocked
system.cpu.icache.blocked::no_mshrs                 0                       # number of cycles access was blocked
system.cpu.icache.blocked::no_targets               0                       # number of cycles access was blocked
system.cpu.icache.avg_blocked_cycles::no_mshrs          nan                       # average number of cycles each access was blocked
system.cpu.icache.avg_blocked_cycles::no_targets          nan                       # average number of cycles each access was blocked
system.cpu.icache.fast_writes                       0                       # number of fast writes performed
system.cpu.icache.cache_copies                      0                       # number of cache copies performed
system.cpu.icache.writebacks::writebacks         3644                       # number of writebacks
system.cpu.icache.writebacks::total              3644                       # number of writebacks
system.cpu.icache.ReadReq_mshr_misses::cpu.inst         5085                       # number of ReadReq MSHR misses
system.cpu.icache.ReadReq_mshr_misses::total         5085                       # number of ReadReq MSHR misses
system.cpu.icache.demand_mshr_misses::cpu.inst         5085                       # number of demand (read+write) MSHR misses
system.cpu.icache.demand_mshr_misses::total         5085                       # number of demand (read+write) MSHR misses
system.cpu.icache.overall_mshr_misses::cpu.inst         5085                       # number of overall MSHR misses
system.cpu.icache.overall_mshr_misses::total         5085                       # number of overall MSHR misses
system.cpu.icache.ReadReq_mshr_miss_latency::cpu.inst    206715500                       # number of ReadReq MSHR miss cycles
system.cpu.icache.ReadReq_mshr_miss_latency::total    206715500                       # number of ReadReq MSHR miss cycles
system.cpu.icache.demand_mshr_miss_latency::cpu.inst    206715500                       # number of demand (read+write) MSHR miss cycles
system.cpu.icache.demand_mshr_miss_latency::total    206715500                       # number of demand (read+write) MSHR miss cycles
system.cpu.icache.overall_mshr_miss_latency::cpu.inst    206715500                       # number of overall MSHR miss cycles
system.cpu.icache.overall_mshr_miss_latency::total    206715500                       # number of overall MSHR miss cycles
system.cpu.icache.ReadReq_mshr_miss_rate::cpu.inst     0.000073                       # mshr miss rate for ReadReq accesses
system.cpu.icache.ReadReq_mshr_miss_rate::total     0.000073                       # mshr miss rate for ReadReq accesses
system.cpu.icache.demand_mshr_miss_rate::cpu.inst     0.000073                       # mshr miss rate for demand accesses
system.cpu.icache.demand_mshr_miss_rate::total     0.000073                       # mshr miss rate for demand accesses
system.cpu.icache.overall_mshr_miss_rate::cpu.inst     0.000073                       # mshr miss rate for overall accesses
system.cpu.icache.overall_mshr_miss_rate::total     0.000073                       # mshr miss rate for overall accesses
system.cpu.icache.ReadReq_avg_mshr_miss_latency::cpu.inst 40652.015733                       # average ReadReq mshr miss latency
system.cpu.icache.ReadReq_avg_mshr_miss_latency::total 40652.015733                       # average ReadReq mshr miss latency
system.cpu.icache.demand_avg_mshr_miss_latency::cpu.inst 40652.015733                       # average overall mshr miss latency
system.cpu.icache.demand_avg_mshr_miss_latency::total 40652.015733                       # average overall mshr miss latency
system.cpu.icache.overall_avg_mshr_miss_latency::cpu.inst 40652.015733                       # average overall mshr miss latency
system.cpu.icache.overall_avg_mshr_miss_latency::total 40652.015733                       # average overall mshr miss latency
system.cpu.icache.no_allocate_misses                0                       # Number of misses that were no-allocate
system.cpu.itb_walker_cache.tags.replacements            0                       # number of replacements
system.cpu.itb_walker_cache.tags.tagsinuse            0                       # Cycle average of tags in use
system.cpu.itb_walker_cache.tags.total_refs            0                       # Total number of references to valid blocks.
system.cpu.itb_walker_cache.tags.sampled_refs            0                       # Sample count of references to valid blocks.
system.cpu.itb_walker_cache.tags.avg_refs          nan                       # Average number of references to valid blocks.
system.cpu.itb_walker_cache.tags.warmup_cycle            0                       # Cycle when the warmup percentage was hit.
system.cpu.itb_walker_cache.tags.tag_accesses            0                       # Number of tag accesses
system.cpu.itb_walker_cache.tags.data_accesses            0                       # Number of data accesses
system.cpu.itb_walker_cache.blocked_cycles::no_mshrs            0                       # number of cycles access was blocked
system.cpu.itb_walker_cache.blocked_cycles::no_targets            0                       # number of cycles access was blocked
system.cpu.itb_walker_cache.blocked::no_mshrs            0                       # number of cycles access was blocked
system.cpu.itb_walker_cache.blocked::no_targets            0                       # number of cycles access was blocked
system.cpu.itb_walker_cache.avg_blocked_cycles::no_mshrs          nan                       # average number of cycles each access was blocked
system.cpu.itb_walker_cache.avg_blocked_cycles::no_targets          nan                       # average number of cycles each access was blocked
system.cpu.itb_walker_cache.fast_writes             0                       # number of fast writes performed
system.cpu.itb_walker_cache.cache_copies            0                       # number of cache copies performed
system.cpu.itb_walker_cache.no_allocate_misses            0                       # Number of misses that were no-allocate
system.l2.tags.replacements                         0                       # number of replacements
system.l2.tags.tagsinuse                  7311.787080                       # Cycle average of tags in use
system.l2.tags.total_refs                      148900                       # Total number of references to valid blocks.
system.l2.tags.sampled_refs                      8074                       # Sample count of references to valid blocks.
system.l2.tags.avg_refs                     18.441912                       # Average number of references to valid blocks.
system.l2.tags.warmup_cycle                         0                       # Cycle when the warmup percentage was hit.
system.l2.tags.occ_blocks::writebacks     4020.312379                       # Average occupied blocks per requestor
system.l2.tags.occ_blocks::cpu.inst       2233.614405                       # Average occupied blocks per requestor
system.l2.tags.occ_blocks::cpu.data       1057.860295                       # Average occupied blocks per requestor
system.l2.tags.occ_percent::writebacks       0.061345                       # Average percentage of cache occupancy
system.l2.tags.occ_percent::cpu.inst         0.034082                       # Average percentage of cache occupancy
system.l2.tags.occ_percent::cpu.data         0.016142                       # Average percentage of cache occupancy
system.l2.tags.occ_percent::total            0.111569                       # Average percentage of cache occupancy
system.l2.tags.occ_task_id_blocks::1024          8074                       # Occupied blocks per task id
system.l2.tags.age_task_id_blocks_1024::0           10                       # Occupied blocks per task id
system.l2.tags.age_task_id_blocks_1024::1           44                       # Occupied blocks per task id
system.l2.tags.age_task_id_blocks_1024::2          201                       # Occupied blocks per task id
system.l2.tags.age_task_id_blocks_1024::3         3666                       # Occupied blocks per task id
system.l2.tags.age_task_id_blocks_1024::4         4153                       # Occupied blocks per task id
system.l2.tags.occ_task_id_percent::1024     0.123199                       # Percentage of cache occupancy per task id
system.l2.tags.tag_accesses                    336898                       # Number of tag accesses
system.l2.tags.data_accesses                   336898                       # Number of data accesses
system.l2.WritebackDirty_hits::writebacks       120889                       # number of WritebackDirty hits
system.l2.WritebackDirty_hits::total           120889                       # number of WritebackDirty hits
system.l2.WritebackClean_hits::writebacks         3644                       # number of WritebackClean hits
system.l2.WritebackClean_hits::total             3644                       # number of WritebackClean hits
system.l2.ReadExReq_hits::cpu.data              67153                       # number of ReadExReq hits
system.l2.ReadExReq_hits::total                 67153                       # number of ReadExReq hits
system.l2.ReadCleanReq_hits::cpu.inst            2824                       # number of ReadCleanReq hits
system.l2.ReadCleanReq_hits::total               2824                       # number of ReadCleanReq hits
system.l2.ReadSharedReq_hits::cpu.data          50180                       # number of ReadSharedReq hits
system.l2.ReadSharedReq_hits::total             50180                       # number of ReadSharedReq hits
system.l2.demand_hits::cpu.inst                  2824                       # number of demand (read+write) hits
system.l2.demand_hits::cpu.data                117333                       # number of demand (read+write) hits
system.l2.demand_hits::total                   120157                       # number of demand (read+write) hits
system.l2.overall_hits::cpu.inst                 2824                       # number of overall hits
system.l2.overall_hits::cpu.data               117333                       # number of overall hits
system.l2.overall_hits::total                  120157                       # number of overall hits
system.l2.ReadExReq_misses::cpu.data             5788                       # number of ReadExReq misses
system.l2.ReadExReq_misses::total                5788                       # number of ReadExReq misses
system.l2.ReadCleanReq_misses::cpu.inst          2261                       # number of ReadCleanReq misses
system.l2.ReadCleanReq_misses::total             2261                       # number of ReadCleanReq misses
system.l2.ReadSharedReq_misses::cpu.data         1480                       # number of ReadSharedReq misses
system.l2.ReadSharedReq_misses::total            1480                       # number of ReadSharedReq misses
system.l2.demand_misses::cpu.inst                2261                       # number of demand (read+write) misses
system.l2.demand_misses::cpu.data                7268                       # number of demand (read+write) misses
system.l2.demand_misses::total                   9529                       # number of demand (read+write) misses
system.l2.overall_misses::cpu.inst               2261                       # number of overall misses
system.l2.overall_misses::cpu.data               7268                       # number of overall misses
system.l2.overall_misses::total                  9529                       # number of overall misses
system.l2.ReadExReq_miss_latency::cpu.data    450345500                       # number of ReadExReq miss cycles
system.l2.ReadExReq_miss_latency::total     450345500                       # number of ReadExReq miss cycles
system.l2.ReadCleanReq_miss_latency::cpu.inst    169436000                       # number of ReadCleanReq miss cycles
system.l2.ReadCleanReq_miss_latency::total    169436000                       # number of ReadCleanReq miss cycles
system.l2.ReadSharedReq_miss_latency::cpu.data    113057500                       # number of ReadSharedReq miss cycles
system.l2.ReadSharedReq_miss_latency::total    113057500                       # number of ReadSharedReq miss cycles
system.l2.demand_miss_latency::cpu.inst     169436000                       # number of demand (read+write) miss cycles
system.l2.demand_miss_latency::cpu.data     563403000                       # number of demand (read+write) miss cycles
system.l2.demand_miss_latency::total        732839000                       # number of demand (read+write) miss cycles
system.l2.overall_miss_latency::cpu.inst    169436000                       # number of overall miss cycles
system.l2.overall_miss_latency::cpu.data    563403000                       # number of overall miss cycles
system.l2.overall_miss_latency::total       732839000                       # number of overall miss cycles
system.l2.WritebackDirty_accesses::writebacks       120889                       # number of WritebackDirty accesses(hits+misses)
system.l2.WritebackDirty_accesses::total       120889                       # number of WritebackDirty accesses(hits+misses)
system.l2.WritebackClean_accesses::writebacks         3644                       # number of WritebackClean accesses(hits+misses)
system.l2.WritebackClean_accesses::total         3644                       # number of WritebackClean accesses(hits+misses)
system.l2.ReadExReq_accesses::cpu.data          72941                       # number of ReadExReq accesses(hits+misses)
system.l2.ReadExReq_accesses::total             72941                       # number of ReadExReq accesses(hits+misses)
system.l2.ReadCleanReq_accesses::cpu.inst         5085                       # number of ReadCleanReq accesses(hits+misses)
system.l2.ReadCleanReq_accesses::total           5085                       # number of ReadCleanReq accesses(hits+misses)
system.l2.ReadSharedReq_accesses::cpu.data        51660                       # number of ReadSharedReq accesses(hits+misses)
system.l2.ReadSharedReq_accesses::total         51660                       # number of ReadSharedReq accesses(hits+misses)
system.l2.demand_accesses::cpu.inst              5085                       # number of demand (read+write) accesses
system.l2.demand_accesses::cpu.data            124601                       # number of demand (read+write) accesses
system.l2.demand_accesses::total               129686                       # number of demand (read+write) accesses
system.l2.overall_accesses::cpu.inst             5085                       # number of overall (read+write) accesses
system.l2.overall_accesses::cpu.data           124601                       # number of overall (read+write) accesses
system.l2.overall_accesses::total              129686                       # number of overall (read+write) accesses
system.l2.ReadExReq_miss_rate::cpu.data      0.079352                       # miss rate for ReadExReq accesses
system.l2.ReadExReq_miss_rate::total         0.079352                       # miss rate for ReadExReq accesses
system.l2.ReadCleanReq_miss_rate::cpu.inst     0.444641                       # miss rate for ReadCleanReq accesses
system.l2.ReadCleanReq_miss_rate::total      0.444641                       # miss rate for ReadCleanReq accesses
system.l2.ReadSharedReq_miss_rate::cpu.data     0.028649                       # miss rate for ReadSharedReq accesses
system.l2.ReadSharedReq_miss_rate::total     0.028649                       # miss rate for ReadSharedReq accesses
system.l2.demand_miss_rate::cpu.inst         0.444641                       # miss rate for demand accesses
system.l2.demand_miss_rate::cpu.data         0.058330                       # miss rate for demand accesses
system.l2.demand_miss_rate::total            0.073477                       # miss rate for demand accesses
system.l2.overall_miss_rate::cpu.inst        0.444641                       # miss rate for overall accesses
system.l2.overall_miss_rate::cpu.data        0.058330                       # miss rate for overall accesses
system.l2.overall_miss_rate::total           0.073477                       # miss rate for overall accesses
system.l2.ReadExReq_avg_miss_latency::cpu.data 77806.755356                       # average ReadExReq miss latency
system.l2.ReadExReq_avg_miss_latency::total 77806.755356                       # average ReadExReq miss latency
system.l2.ReadCleanReq_avg_miss_latency::cpu.inst 74938.522778                       # average ReadCleanReq miss latency
system.l2.ReadCleanReq_avg_miss_latency::total 74938.522778                       # average ReadCleanReq miss latency
system.l2.ReadSharedReq_avg_miss_latency::cpu.data 76390.202703                       # average ReadSharedReq miss latency
system.l2.ReadSharedReq_avg_miss_latency::total 76390.202703                       # average ReadSharedReq miss latency
system.l2.demand_avg_miss_latency::cpu.inst 74938.522778                       # average overall miss latency
system.l2.demand_avg_miss_latency::cpu.data 77518.299395                       # average overall miss latency
system.l2.demand_avg_miss_latency::total 76906.181131                       # average overall miss latency
system.l2.overall_avg_miss_latency::cpu.inst 74938.522778                       # average overall miss latency
system.l2.overall_avg_miss_latency::cpu.data 77518.299395                       # average overall miss latency
system.l2.overall_avg_miss_latency::total 76906.181131                       # average overall miss latency
system.l2.blocked_cycles::no_mshrs                  0                       # number of cycles access was blocked
system.l2.blocked_cycles::no_targets                0                       # number of cycles access was blocked
system.l2.blocked::no_mshrs                         0                       # number of cycles access was blocked
system.l2.blocked::no_targets                       0                       # number of cycles access was blocked
system.l2.avg_blocked_cycles::no_mshrs            nan                       # average number of cycles each access was blocked
system.l2.avg_blocked_cycles::no_targets          nan                       # average number of cycles each access was blocked
system.l2.fast_writes                               0                       # number of fast writes performed
system.l2.cache_copies                              0                       # number of cache copies performed
system.l2.ReadExReq_mshr_misses::cpu.data         5788                       # number of ReadExReq MSHR misses
system.l2.ReadExReq_mshr_misses::total           5788                       # number of ReadExReq MSHR misses
system.l2.ReadCleanReq_mshr_misses::cpu.inst         2261                       # number of ReadCleanReq MSHR misses
system.l2.ReadCleanReq_mshr_misses::total         2261                       # number of ReadCleanReq MSHR misses
system.l2.ReadSharedReq_mshr_misses::cpu.data         1480                       # number of ReadSharedReq MSHR misses
system.l2.ReadSharedReq_mshr_misses::total         1480                       # number of ReadSharedReq MSHR misses
system.l2.demand_mshr_misses::cpu.inst           2261                       # number of demand (read+write) MSHR misses
system.l2.demand_mshr_misses::cpu.data           7268                       # number of demand (read+write) MSHR misses
system.l2.demand_mshr_misses::total              9529                       # number of demand (read+write) MSHR misses
system.l2.overall_mshr_misses::cpu.inst          2261                       # number of overall MSHR misses
system.l2.overall_mshr_misses::cpu.data          7268                       # number of overall MSHR misses
system.l2.overall_mshr_misses::total             9529                       # number of overall MSHR misses
system.l2.ReadExReq_mshr_miss_latency::cpu.data    392465500                       # number of ReadExReq MSHR miss cycles
system.l2.ReadExReq_mshr_miss_latency::total    392465500                       # number of ReadExReq MSHR miss cycles
system.l2.ReadCleanReq_mshr_miss_latency::cpu.inst    146826000                       # number of ReadCleanReq MSHR miss cycles
system.l2.ReadCleanReq_mshr_miss_latency::total    146826000                       # number of ReadCleanReq MSHR miss cycles
system.l2.ReadSharedReq_mshr_miss_latency::cpu.data     98257500                       # number of ReadSharedReq MSHR miss cycles
system.l2.ReadSharedReq_mshr_miss_latency::total     98257500                       # number of ReadSharedReq MSHR miss cycles
system.l2.demand_mshr_miss_latency::cpu.inst    146826000                       # number of demand (read+write) MSHR miss cycles
system.l2.demand_mshr_miss_latency::cpu.data    490723000                       # number of demand (read+write) MSHR miss cycles
system.l2.demand_mshr_miss_latency::total    637549000                       # number of demand (read+write) MSHR miss cycles
system.l2.overall_mshr_miss_latency::cpu.inst    146826000                       # number of overall MSHR miss cycles
system.l2.overall_mshr_miss_latency::cpu.data    490723000                       # number of overall MSHR miss cycles
system.l2.overall_mshr_miss_latency::total    637549000                       # number of overall MSHR miss cycles
system.l2.ReadExReq_mshr_miss_rate::cpu.data     0.079352                       # mshr miss rate for ReadExReq accesses
system.l2.ReadExReq_mshr_miss_rate::total     0.079352                       # mshr miss rate for ReadExReq accesses
system.l2.ReadCleanReq_mshr_miss_rate::cpu.inst     0.444641                       # mshr miss rate for ReadCleanReq accesses
system.l2.ReadCleanReq_mshr_miss_rate::total     0.444641                       # mshr miss rate for ReadCleanReq accesses
system.l2.ReadSharedReq_mshr_miss_rate::cpu.data     0.028649                       # mshr miss rate for ReadSharedReq accesses
system.l2.ReadSharedReq_mshr_miss_rate::total     0.028649                       # mshr miss rate for ReadSharedReq accesses
system.l2.demand_mshr_miss_rate::cpu.inst     0.444641                       # mshr miss rate for demand accesses
system.l2.demand_mshr_miss_rate::cpu.data     0.058330                       # mshr miss rate for demand accesses
system.l2.demand_mshr_miss_rate::total       0.073477                       # mshr miss rate for demand accesses
system.l2.overall_mshr_miss_rate::cpu.inst     0.444641                       # mshr miss rate for overall accesses
system.l2.overall_mshr_miss_rate::cpu.data     0.058330                       # mshr miss rate for overall accesses
system.l2.overall_mshr_miss_rate::total      0.073477                       # mshr miss rate for overall accesses
system.l2.ReadExReq_avg_mshr_miss_latency::cpu.data 67806.755356                       # average ReadExReq mshr miss latency
system.l2.ReadExReq_avg_mshr_miss_latency::total 67806.755356                       # average ReadExReq mshr miss latency
system.l2.ReadCleanReq_avg_mshr_miss_latency::cpu.inst 64938.522778                       # average ReadCleanReq mshr miss latency
system.l2.ReadCleanReq_avg_mshr_miss_latency::total 64938.522778                       # average ReadCleanReq mshr miss latency
system.l2.ReadSharedReq_avg_mshr_miss_latency::cpu.data 66390.202703                       # average ReadSharedReq mshr miss latency
system.l2.ReadSharedReq_avg_mshr_miss_latency::total 66390.202703                       # average ReadSharedReq mshr miss latency
system.l2.demand_avg_mshr_miss_latency::cpu.inst 64938.522778                       # average overall mshr miss latency
system.l2.demand_avg_mshr_miss_latency::cpu.data 67518.299395                       # average overall mshr miss latency
system.l2.demand_avg_mshr_miss_latency::total 66906.181131                       # average overall mshr miss latency
system.l2.overall_avg_mshr_miss_latency::cpu.inst 64938.522778                       # average overall mshr miss latency
system.l2.overall_avg_mshr_miss_latency::cpu.data 67518.299395                       # average overall mshr miss latency
system.l2.overall_avg_mshr_miss_latency::total 66906.181131                       # average overall mshr miss latency
system.l2.no_allocate_misses                        0                       # Number of misses that were no-allocate
system.membus.trans_dist::ReadResp               3741                       # Transaction distribution
system.membus.trans_dist::ReadExReq              5788                       # Transaction distribution
system.membus.trans_dist::ReadExResp             5788                       # Transaction distribution
system.membus.trans_dist::ReadSharedReq          3741                       # Transaction distribution
system.membus.pkt_count_system.l2.mem_side::system.mem_ctrls.port        19058                       # Packet count per connected master and slave (bytes)
system.membus.pkt_count_system.l2.mem_side::total        19058                       # Packet count per connected master and slave (bytes)
system.membus.pkt_count::total                  19058                       # Packet count per connected master and slave (bytes)
system.membus.pkt_size_system.l2.mem_side::system.mem_ctrls.port       304928                       # Cumulative packet size per connected master and slave (bytes)
system.membus.pkt_size_system.l2.mem_side::total       304928                       # Cumulative packet size per connected master and slave (bytes)
system.membus.pkt_size::total                  304928                       # Cumulative packet size per connected master and slave (bytes)
system.membus.snoops                                0                       # Total snoops (count)
system.membus.snoop_fanout::samples              9529                       # Request fanout histogram
system.membus.snoop_fanout::mean                    0                       # Request fanout histogram
system.membus.snoop_fanout::stdev                   0                       # Request fanout histogram
system.membus.snoop_fanout::underflows              0      0.00%      0.00% # Request fanout histogram
system.membus.snoop_fanout::0                    9529    100.00%    100.00% # Request fanout histogram
system.membus.snoop_fanout::1                       0      0.00%    100.00% # Request fanout histogram
system.membus.snoop_fanout::overflows               0      0.00%    100.00% # Request fanout histogram
system.membus.snoop_fanout::min_value               0                       # Request fanout histogram
system.membus.snoop_fanout::max_value               0                       # Request fanout histogram
system.membus.snoop_fanout::total                9529                       # Request fanout histogram
system.membus.reqLayer2.occupancy             9639500                       # Layer occupancy (ticks)
system.membus.reqLayer2.utilization               0.0                       # Layer utilization (%)
system.membus.respLayer1.occupancy           31681250                       # Layer occupancy (ticks)
system.membus.respLayer1.utilization              0.0                       # Layer utilization (%)
system.tol2bus.snoop_filter.tot_requests       255883                       # Total number of requests made to the snoop filter.
system.tol2bus.snoop_filter.hit_single_requests       126197                       # Number of requests hitting in the snoop filter with a single holder of the requested data.
system.tol2bus.snoop_filter.hit_multi_requests            0                       # Number of requests hitting in the snoop filter with multiple (>1) holders of the requested data.
system.tol2bus.snoop_filter.tot_snoops              0                       # Total number of snoops made to the snoop filter.
system.tol2bus.snoop_filter.hit_single_snoops            0                       # Number of snoops hitting in the snoop filter with a single holder of the requested data.
system.tol2bus.snoop_filter.hit_multi_snoops            0                       # Number of snoops hitting in the snoop filter with multiple (>1) holders of the requested data.
system.tol2bus.trans_dist::ReadResp             56745                       # Transaction distribution
system.tol2bus.trans_dist::WritebackDirty       120889                       # Transaction distribution
system.tol2bus.trans_dist::WritebackClean         3644                       # Transaction distribution
system.tol2bus.trans_dist::CleanEvict            1664                       # Transaction distribution
system.tol2bus.trans_dist::ReadExReq            72941                       # Transaction distribution
system.tol2bus.trans_dist::ReadExResp           72941                       # Transaction distribution
system.tol2bus.trans_dist::ReadCleanReq          5085                       # Transaction distribution
system.tol2bus.trans_dist::ReadSharedReq        51660                       # Transaction distribution
system.tol2bus.pkt_count_system.cpu.icache.mem_side::system.l2.cpu_side        13814                       # Packet count per connected master and slave (bytes)
system.tol2bus.pkt_count_system.cpu.dcache.mem_side::system.l2.cpu_side       371755                       # Packet count per connected master and slave (bytes)
system.tol2bus.pkt_count::total                385569                       # Packet count per connected master and slave (bytes)
system.tol2bus.pkt_size_system.cpu.icache.mem_side::system.l2.cpu_side       279328                       # Cumulative packet size per connected master and slave (bytes)
system.tol2bus.pkt_size_system.cpu.dcache.mem_side::system.l2.cpu_side      7855680                       # Cumulative packet size per connected master and slave (bytes)
system.tol2bus.pkt_size::total                8135008                       # Cumulative packet size per connected master and slave (bytes)
system.tol2bus.snoops                               0                       # Total snoops (count)
system.tol2bus.snoop_fanout::samples           129686                       # Request fanout histogram
system.tol2bus.snoop_fanout::mean                   0                       # Request fanout histogram
system.tol2bus.snoop_fanout::stdev                  0                       # Request fanout histogram
system.tol2bus.snoop_fanout::underflows             0      0.00%      0.00% # Request fanout histogram
system.tol2bus.snoop_fanout::0                 129686    100.00%    100.00% # Request fanout histogram
system.tol2bus.snoop_fanout::1                      0      0.00%    100.00% # Request fanout histogram
system.tol2bus.snoop_fanout::2                      0      0.00%    100.00% # Request fanout histogram
system.tol2bus.snoop_fanout::3                      0      0.00%    100.00% # Request fanout histogram
system.tol2bus.snoop_fanout::4                      0      0.00%    100.00% # Request fanout histogram
system.tol2bus.snoop_fanout::overflows              0      0.00%    100.00% # Request fanout histogram
system.tol2bus.snoop_fanout::min_value              0                       # Request fanout histogram
system.tol2bus.snoop_fanout::max_value              0                       # Request fanout histogram
system.tol2bus.snoop_fanout::total             129686                       # Request fanout histogram
system.tol2bus.reqLayer0.occupancy          190208000                       # Layer occupancy (ticks)
system.tol2bus.reqLayer0.utilization              0.2                       # Layer utilization (%)
system.tol2bus.respLayer0.occupancy           5085000                       # Layer occupancy (ticks)
system.tol2bus.respLayer0.utilization             0.0                       # Layer utilization (%)
system.tol2bus.respLayer1.occupancy         124601000                       # Layer occupancy (ticks)
system.tol2bus.respLayer1.utilization             0.1                       # Layer utilization (%)

---------- End Simulation Statistics   ----------
