
---------- Begin Simulation Statistics ----------
sim_seconds                                  0.096262                       # Number of seconds simulated
sim_ticks                                 96262392500                       # Number of ticks simulated
final_tick                                96262392500                       # Number of ticks from beginning of simulation (restored from checkpoints and never reset)
sim_freq                                 1000000000000                       # Frequency of simulated ticks
host_inst_rate                                 517049                       # Simulator instruction rate (inst/s)
host_op_rate                                   672313                       # Simulator op (including micro ops) rate (op/s)
host_tick_rate                              995447506                       # Simulator tick rate (ticks/s)
host_mem_usage                                 871924                       # Number of bytes of host memory used
host_seconds                                    96.70                       # Real time elapsed on the host
sim_insts                                    50000001                       # Number of instructions simulated
sim_ops                                      65014465                       # Number of ops (including micro ops) simulated
system.voltage_domain.voltage                       1                       # Voltage in Volts
system.clk_domain.clock                          1000                       # Clock period in ticks
system.mem_ctrls.bytes_read::cpu.inst           72352                       # Number of bytes read from this memory
system.mem_ctrls.bytes_read::cpu.data          232576                       # Number of bytes read from this memory
system.mem_ctrls.bytes_read::total             304928                       # Number of bytes read from this memory
system.mem_ctrls.bytes_inst_read::cpu.inst        72352                       # Number of instructions bytes read from this memory
system.mem_ctrls.bytes_inst_read::total         72352                       # Number of instructions bytes read from this memory
system.mem_ctrls.num_reads::cpu.inst             2261                       # Number of read requests responded to by this memory
system.mem_ctrls.num_reads::cpu.data             7268                       # Number of read requests responded to by this memory
system.mem_ctrls.num_reads::total                9529                       # Number of read requests responded to by this memory
system.mem_ctrls.bw_read::cpu.inst             751612                       # Total read bandwidth from this memory (bytes/s)
system.mem_ctrls.bw_read::cpu.data            2416063                       # Total read bandwidth from this memory (bytes/s)
system.mem_ctrls.bw_read::total               3167675                       # Total read bandwidth from this memory (bytes/s)
system.mem_ctrls.bw_inst_read::cpu.inst        751612                       # Instruction read bandwidth from this memory (bytes/s)
system.mem_ctrls.bw_inst_read::total           751612                       # Instruction read bandwidth from this memory (bytes/s)
system.mem_ctrls.bw_total::cpu.inst            751612                       # Total bandwidth to/from this memory (bytes/s)
system.mem_ctrls.bw_total::cpu.data           2416063                       # Total bandwidth to/from this memory (bytes/s)
system.mem_ctrls.bw_total::total              3167675                       # Total bandwidth to/from this memory (bytes/s)
system.mem_ctrls.readReqs                        9529                       # Number of read requests accepted
system.mem_ctrls.writeReqs                          0                       # Number of write requests accepted
system.mem_ctrls.readBursts                      9529                       # Number of DRAM read bursts, including those serviced by the write queue
system.mem_ctrls.writeBursts                        0                       # Number of DRAM write bursts, including those merged in the write queue
system.mem_ctrls.bytesReadDRAM                 609856                       # Total number of bytes read from DRAM
system.mem_ctrls.bytesReadWrQ                       0                       # Total number of bytes read from write queue
system.mem_ctrls.bytesWritten                       0                       # Total number of bytes written to DRAM
system.mem_ctrls.bytesReadSys                  304928                       # Total read bytes from the system interface side
system.mem_ctrls.bytesWrittenSys                    0                       # Total written bytes from the system interface side
system.mem_ctrls.servicedByWrQ                      0                       # Number of DRAM read bursts serviced by the write queue
system.mem_ctrls.mergedWrBursts                     0                       # Number of DRAM write bursts merged with an existing one
system.mem_ctrls.neitherReadNorWriteReqs            0                       # Number of requests that are neither read nor write
system.mem_ctrls.perBankRdBursts::0               500                       # Per bank write bursts
system.mem_ctrls.perBankRdBursts::1               418                       # Per bank write bursts
system.mem_ctrls.perBankRdBursts::2               563                       # Per bank write bursts
system.mem_ctrls.perBankRdBursts::3               354                       # Per bank write bursts
system.mem_ctrls.perBankRdBursts::4               633                       # Per bank write bursts
system.mem_ctrls.perBankRdBursts::5               511                       # Per bank write bursts
system.mem_ctrls.perBankRdBursts::6               405                       # Per bank write bursts
system.mem_ctrls.perBankRdBursts::7               527                       # Per bank write bursts
system.mem_ctrls.perBankRdBursts::8               667                       # Per bank write bursts
system.mem_ctrls.perBankRdBursts::9               711                       # Per bank write bursts
system.mem_ctrls.perBankRdBursts::10              821                       # Per bank write bursts
system.mem_ctrls.perBankRdBursts::11              880                       # Per bank write bursts
system.mem_ctrls.perBankRdBursts::12              693                       # Per bank write bursts
system.mem_ctrls.perBankRdBursts::13              628                       # Per bank write bursts
system.mem_ctrls.perBankRdBursts::14              596                       # Per bank write bursts
system.mem_ctrls.perBankRdBursts::15              622                       # Per bank write bursts
system.mem_ctrls.perBankWrBursts::0                 0                       # Per bank write bursts
system.mem_ctrls.perBankWrBursts::1                 0                       # Per bank write bursts
system.mem_ctrls.perBankWrBursts::2                 0                       # Per bank write bursts
system.mem_ctrls.perBankWrBursts::3                 0                       # Per bank write bursts
system.mem_ctrls.perBankWrBursts::4                 0                       # Per bank write bursts
system.mem_ctrls.perBankWrBursts::5                 0                       # Per bank write bursts
system.mem_ctrls.perBankWrBursts::6                 0                       # Per bank write bursts
system.mem_ctrls.perBankWrBursts::7                 0                       # Per bank write bursts
system.mem_ctrls.perBankWrBursts::8                 0                       # Per bank write bursts
system.mem_ctrls.perBankWrBursts::9                 0                       # Per bank write bursts
system.mem_ctrls.perBankWrBursts::10                0                       # Per bank write bursts
system.mem_ctrls.perBankWrBursts::11                0                       # Per bank write bursts
system.mem_ctrls.perBankWrBursts::12                0                       # Per bank write bursts
system.mem_ctrls.perBankWrBursts::13                0                       # Per bank write bursts
system.mem_ctrls.perBankWrBursts::14                0                       # Per bank write bursts
system.mem_ctrls.perBankWrBursts::15                0                       # Per bank write bursts
system.mem_ctrls.numRdRetry                         0                       # Number of times read queue was full causing retry
system.mem_ctrls.numWrRetry                         0                       # Number of times write queue was full causing retry
system.mem_ctrls.totGap                   93631417500                       # Total gap between requests
system.mem_ctrls.readPktSize::0                     0                       # Read request sizes (log2)
system.mem_ctrls.readPktSize::1                     0                       # Read request sizes (log2)
system.mem_ctrls.readPktSize::2                     0                       # Read request sizes (log2)
system.mem_ctrls.readPktSize::3                     0                       # Read request sizes (log2)
system.mem_ctrls.readPktSize::4                     0                       # Read request sizes (log2)
system.mem_ctrls.readPktSize::5                  9529                       # Read request sizes (log2)
system.mem_ctrls.readPktSize::6                     0                       # Read request sizes (log2)
system.mem_ctrls.writePktSize::0                    0                       # Write request sizes (log2)
system.mem_ctrls.writePktSize::1                    0                       # Write request sizes (log2)
system.mem_ctrls.writePktSize::2                    0                       # Write request sizes (log2)
system.mem_ctrls.writePktSize::3                    0                       # Write request sizes (log2)
system.mem_ctrls.writePktSize::4                    0                       # Write request sizes (log2)
system.mem_ctrls.writePktSize::5                    0                       # Write request sizes (log2)
system.mem_ctrls.writePktSize::6                    0                       # Write request sizes (log2)
system.mem_ctrls.rdQLenPdf::0                    9216                       # What read queue length does an incoming req see
system.mem_ctrls.rdQLenPdf::1                     169                       # What read queue length does an incoming req see
system.mem_ctrls.rdQLenPdf::2                     143                       # What read queue length does an incoming req see
system.mem_ctrls.rdQLenPdf::3                       1                       # What read queue length does an incoming req see
system.mem_ctrls.rdQLenPdf::4                       0                       # What read queue length does an incoming req see
system.mem_ctrls.rdQLenPdf::5                       0                       # What read queue length does an incoming req see
system.mem_ctrls.rdQLenPdf::6                       0                       # What read queue length does an incoming req see
system.mem_ctrls.rdQLenPdf::7                       0                       # What read queue length does an incoming req see
system.mem_ctrls.rdQLenPdf::8                       0                       # What read queue length does an incoming req see
system.mem_ctrls.rdQLenPdf::9                       0                       # What read queue length does an incoming req see
system.mem_ctrls.rdQLenPdf::10                      0                       # What read queue length does an incoming req see
system.mem_ctrls.rdQLenPdf::11                      0                       # What read queue length does an incoming req see
system.mem_ctrls.rdQLenPdf::12                      0                       # What read queue length does an incoming req see
system.mem_ctrls.rdQLenPdf::13                      0                       # What read queue length does an incoming req see
system.mem_ctrls.rdQLenPdf::14                      0                       # What read queue length does an incoming req see
system.mem_ctrls.rdQLenPdf::15                      0                       # What read queue length does an incoming req see
system.mem_ctrls.rdQLenPdf::16                      0                       # What read queue length does an incoming req see
system.mem_ctrls.rdQLenPdf::17                      0                       # What read queue length does an incoming req see
system.mem_ctrls.rdQLenPdf::18                      0                       # What read queue length does an incoming req see
system.mem_ctrls.rdQLenPdf::19                      0                       # What read queue length does an incoming req see
system.mem_ctrls.rdQLenPdf::20                      0                       # What read queue length does an incoming req see
system.mem_ctrls.rdQLenPdf::21                      0                       # What read queue length does an incoming req see
system.mem_ctrls.rdQLenPdf::22                      0                       # What read queue length does an incoming req see
system.mem_ctrls.rdQLenPdf::23                      0                       # What read queue length does an incoming req see
system.mem_ctrls.rdQLenPdf::24                      0                       # What read queue length does an incoming req see
system.mem_ctrls.rdQLenPdf::25                      0                       # What read queue length does an incoming req see
system.mem_ctrls.rdQLenPdf::26                      0                       # What read queue length does an incoming req see
system.mem_ctrls.rdQLenPdf::27                      0                       # What read queue length does an incoming req see
system.mem_ctrls.rdQLenPdf::28                      0                       # What read queue length does an incoming req see
system.mem_ctrls.rdQLenPdf::29                      0                       # What read queue length does an incoming req see
system.mem_ctrls.rdQLenPdf::30                      0                       # What read queue length does an incoming req see
system.mem_ctrls.rdQLenPdf::31                      0                       # What read queue length does an incoming req see
system.mem_ctrls.wrQLenPdf::0                       0                       # What write queue length does an incoming req see
system.mem_ctrls.wrQLenPdf::1                       0                       # What write queue length does an incoming req see
system.mem_ctrls.wrQLenPdf::2                       0                       # What write queue length does an incoming req see
system.mem_ctrls.wrQLenPdf::3                       0                       # What write queue length does an incoming req see
system.mem_ctrls.wrQLenPdf::4                       0                       # What write queue length does an incoming req see
system.mem_ctrls.wrQLenPdf::5                       0                       # What write queue length does an incoming req see
system.mem_ctrls.wrQLenPdf::6                       0                       # What write queue length does an incoming req see
system.mem_ctrls.wrQLenPdf::7                       0                       # What write queue length does an incoming req see
system.mem_ctrls.wrQLenPdf::8                       0                       # What write queue length does an incoming req see
system.mem_ctrls.wrQLenPdf::9                       0                       # What write queue length does an incoming req see
system.mem_ctrls.wrQLenPdf::10                      0                       # What write queue length does an incoming req see
system.mem_ctrls.wrQLenPdf::11                      0                       # What write queue length does an incoming req see
system.mem_ctrls.wrQLenPdf::12                      0                       # What write queue length does an incoming req see
system.mem_ctrls.wrQLenPdf::13                      0                       # What write queue length does an incoming req see
system.mem_ctrls.wrQLenPdf::14                      0                       # What write queue length does an incoming req see
system.mem_ctrls.wrQLenPdf::15                      0                       # What write queue length does an incoming req see
system.mem_ctrls.wrQLenPdf::16                      0                       # What write queue length does an incoming req see
system.mem_ctrls.wrQLenPdf::17                      0                       # What write queue length does an incoming req see
system.mem_ctrls.wrQLenPdf::18                      0                       # What write queue length does an incoming req see
system.mem_ctrls.wrQLenPdf::19                      0                       # What write queue length does an incoming req see
system.mem_ctrls.wrQLenPdf::20                      0                       # What write queue length does an incoming req see
system.mem_ctrls.wrQLenPdf::21                      0                       # What write queue length does an incoming req see
system.mem_ctrls.wrQLenPdf::22                      0                       # What write queue length does an incoming req see
system.mem_ctrls.wrQLenPdf::23                      0                       # What write queue length does an incoming req see
system.mem_ctrls.wrQLenPdf::24                      0                       # What write queue length does an incoming req see
system.mem_ctrls.wrQLenPdf::25                      0                       # What write queue length does an incoming req see
system.mem_ctrls.wrQLenPdf::26                      0                       # What write queue length does an incoming req see
system.mem_ctrls.wrQLenPdf::27                      0                       # What write queue length does an incoming req see
system.mem_ctrls.wrQLenPdf::28                      0                       # What write queue length does an incoming req see
system.mem_ctrls.wrQLenPdf::29                      0                       # What write queue length does an incoming req see
system.mem_ctrls.wrQLenPdf::30                      0                       # What write queue length does an incoming req see
system.mem_ctrls.wrQLenPdf::31                      0                       # What write queue length does an incoming req see
system.mem_ctrls.wrQLenPdf::32                      0                       # What write queue length does an incoming req see
system.mem_ctrls.wrQLenPdf::33                      0                       # What write queue length does an incoming req see
system.mem_ctrls.wrQLenPdf::34                      0                       # What write queue length does an incoming req see
system.mem_ctrls.wrQLenPdf::35                      0                       # What write queue length does an incoming req see
system.mem_ctrls.wrQLenPdf::36                      0                       # What write queue length does an incoming req see
system.mem_ctrls.wrQLenPdf::37                      0                       # What write queue length does an incoming req see
system.mem_ctrls.wrQLenPdf::38                      0                       # What write queue length does an incoming req see
system.mem_ctrls.wrQLenPdf::39                      0                       # What write queue length does an incoming req see
system.mem_ctrls.wrQLenPdf::40                      0                       # What write queue length does an incoming req see
system.mem_ctrls.wrQLenPdf::41                      0                       # What write queue length does an incoming req see
system.mem_ctrls.wrQLenPdf::42                      0                       # What write queue length does an incoming req see
system.mem_ctrls.wrQLenPdf::43                      0                       # What write queue length does an incoming req see
system.mem_ctrls.wrQLenPdf::44                      0                       # What write queue length does an incoming req see
system.mem_ctrls.wrQLenPdf::45                      0                       # What write queue length does an incoming req see
system.mem_ctrls.wrQLenPdf::46                      0                       # What write queue length does an incoming req see
system.mem_ctrls.wrQLenPdf::47                      0                       # What write queue length does an incoming req see
system.mem_ctrls.wrQLenPdf::48                      0                       # What write queue length does an incoming req see
system.mem_ctrls.wrQLenPdf::49                      0                       # What write queue length does an incoming req see
system.mem_ctrls.wrQLenPdf::50                      0                       # What write queue length does an incoming req see
system.mem_ctrls.wrQLenPdf::51                      0                       # What write queue length does an incoming req see
system.mem_ctrls.wrQLenPdf::52                      0                       # What write queue length does an incoming req see
system.mem_ctrls.wrQLenPdf::53                      0                       # What write queue length does an incoming req see
system.mem_ctrls.wrQLenPdf::54                      0                       # What write queue length does an incoming req see
system.mem_ctrls.wrQLenPdf::55                      0                       # What write queue length does an incoming req see
system.mem_ctrls.wrQLenPdf::56                      0                       # What write queue length does an incoming req see
system.mem_ctrls.wrQLenPdf::57                      0                       # What write queue length does an incoming req see
system.mem_ctrls.wrQLenPdf::58                      0                       # What write queue length does an incoming req see
system.mem_ctrls.wrQLenPdf::59                      0                       # What write queue length does an incoming req see
system.mem_ctrls.wrQLenPdf::60                      0                       # What write queue length does an incoming req see
system.mem_ctrls.wrQLenPdf::61                      0                       # What write queue length does an incoming req see
system.mem_ctrls.wrQLenPdf::62                      0                       # What write queue length does an incoming req see
system.mem_ctrls.wrQLenPdf::63                      0                       # What write queue length does an incoming req see
system.mem_ctrls.bytesPerActivate::samples         2683                       # Bytes accessed per row activation
system.mem_ctrls.bytesPerActivate::mean    227.303764                       # Bytes accessed per row activation
system.mem_ctrls.bytesPerActivate::gmean   150.443329                       # Bytes accessed per row activation
system.mem_ctrls.bytesPerActivate::stdev   269.104137                       # Bytes accessed per row activation
system.mem_ctrls.bytesPerActivate::0-127          672     25.05%     25.05% # Bytes accessed per row activation
system.mem_ctrls.bytesPerActivate::128-255         1444     53.82%     78.87% # Bytes accessed per row activation
system.mem_ctrls.bytesPerActivate::256-383          147      5.48%     84.35% # Bytes accessed per row activation
system.mem_ctrls.bytesPerActivate::384-511           82      3.06%     87.40% # Bytes accessed per row activation
system.mem_ctrls.bytesPerActivate::512-639           52      1.94%     89.34% # Bytes accessed per row activation
system.mem_ctrls.bytesPerActivate::640-767           36      1.34%     90.68% # Bytes accessed per row activation
system.mem_ctrls.bytesPerActivate::768-895           24      0.89%     91.58% # Bytes accessed per row activation
system.mem_ctrls.bytesPerActivate::896-1023           28      1.04%     92.62% # Bytes accessed per row activation
system.mem_ctrls.bytesPerActivate::1024-1151          198      7.38%    100.00% # Bytes accessed per row activation
system.mem_ctrls.bytesPerActivate::total         2683                       # Bytes accessed per row activation
system.mem_ctrls.totQLat                     77404750                       # Total ticks spent queuing
system.mem_ctrls.totMemAccLat               256073500                       # Total ticks spent from burst creation until serviced by the DRAM
system.mem_ctrls.totBusLat                   47645000                       # Total ticks spent in databus transfers
system.mem_ctrls.avgQLat                      8123.07                       # Average queueing delay per DRAM burst
system.mem_ctrls.avgBusLat                    5000.00                       # Average bus latency per DRAM burst
system.mem_ctrls.avgMemAccLat                26873.07                       # Average memory access latency per DRAM burst
system.mem_ctrls.avgRdBW                         6.34                       # Average DRAM read bandwidth in MiByte/s
system.mem_ctrls.avgWrBW                         0.00                       # Average achieved write bandwidth in MiByte/s
system.mem_ctrls.avgRdBWSys                      3.17                       # Average system read bandwidth in MiByte/s
system.mem_ctrls.avgWrBWSys                      0.00                       # Average system write bandwidth in MiByte/s
system.mem_ctrls.peakBW                      12800.00                       # Theoretical peak bandwidth in MiByte/s
system.mem_ctrls.busUtil                         0.05                       # Data bus utilization in percentage
system.mem_ctrls.busUtilRead                     0.05                       # Data bus utilization in percentage for reads
system.mem_ctrls.busUtilWrite                    0.00                       # Data bus utilization in percentage for writes
system.mem_ctrls.avgRdQLen                       1.00                       # Average read queue length when enqueuing
system.mem_ctrls.avgWrQLen                       0.00                       # Average write queue length when enqueuing
system.mem_ctrls.readRowHits                     6846                       # Number of row buffer hits during reads
system.mem_ctrls.writeRowHits                       0                       # Number of row buffer hits during writes
system.mem_ctrls.readRowHitRate                 71.84                       # Row buffer hit rate for reads
system.mem_ctrls.writeRowHitRate                  nan                       # Row buffer hit rate for writes
system.mem_ctrls.avgGap                    9825943.70                       # Average gap between requests
system.mem_ctrls.pageHitRate                    71.84                       # Row buffer hit rate, read and write combined
system.mem_ctrls_0.actEnergy                  9162720                       # Energy for activate commands per rank (pJ)
system.mem_ctrls_0.preEnergy                  4999500                       # Energy for precharge commands per rank (pJ)
system.mem_ctrls_0.readEnergy                30505800                       # Energy for read commands per rank (pJ)
system.mem_ctrls_0.writeEnergy                      0                       # Energy for write commands per rank (pJ)
system.mem_ctrls_0.refreshEnergy           6287327280                       # Energy for refresh commands per rank (pJ)
system.mem_ctrls_0.actBackEnergy           4421490570                       # Energy for active background per rank (pJ)
system.mem_ctrls_0.preBackEnergy          53878492500                       # Energy for precharge background per rank (pJ)
system.mem_ctrls_0.totalEnergy            64631978370                       # Total energy per rank (pJ)
system.mem_ctrls_0.averagePower            671.419771                       # Core power per rank (mW)
system.mem_ctrls_0.memoryStateTime::IDLE  89618149500                       # Time in different power states
system.mem_ctrls_0.memoryStateTime::REF    3214380000                       # Time in different power states
system.mem_ctrls_0.memoryStateTime::PRE_PDN            0                       # Time in different power states
system.mem_ctrls_0.memoryStateTime::ACT    3429139250                       # Time in different power states
system.mem_ctrls_0.memoryStateTime::ACT_PDN            0                       # Time in different power states
system.mem_ctrls_1.actEnergy                 11120760                       # Energy for activate commands per rank (pJ)
system.mem_ctrls_1.preEnergy                  6067875                       # Energy for precharge commands per rank (pJ)
system.mem_ctrls_1.readEnergy                43820400                       # Energy for read commands per rank (pJ)
system.mem_ctrls_1.writeEnergy                      0                       # Energy for write commands per rank (pJ)
system.mem_ctrls_1.refreshEnergy           6287327280                       # Energy for refresh commands per rank (pJ)
system.mem_ctrls_1.actBackEnergy           4703178870                       # Energy for active background per rank (pJ)
system.mem_ctrls_1.preBackEnergy          53631397500                       # Energy for precharge background per rank (pJ)
system.mem_ctrls_1.totalEnergy            64682912685                       # Total energy per rank (pJ)
system.mem_ctrls_1.averagePower            671.948895                       # Core power per rank (mW)
system.mem_ctrls_1.memoryStateTime::IDLE  89205948000                       # Time in different power states
system.mem_ctrls_1.memoryStateTime::REF    3214380000                       # Time in different power states
system.mem_ctrls_1.memoryStateTime::PRE_PDN            0                       # Time in different power states
system.mem_ctrls_1.memoryStateTime::ACT    3841340750                       # Time in different power states
system.mem_ctrls_1.memoryStateTime::ACT_PDN            0                       # Time in different power states
system.cpu.branchPred.lookups                 2859327                       # Number of BP lookups
system.cpu.branchPred.condPredicted           2859327                       # Number of conditional branches predicted
system.cpu.branchPred.condIncorrect            273192                       # Number of conditional branches incorrect
system.cpu.branchPred.BTBLookups              2055348                       # Number of BTB lookups
system.cpu.branchPred.BTBHits                 2033332                       # Number of BTB hits
system.cpu.branchPred.BTBCorrect                    0                       # Number of correct BTB predictions (this stat may not work properly.
system.cpu.branchPred.BTBHitPct             98.928843                       # BTB Hit Percentage
system.cpu.branchPred.BTBMissPct             1.071157                       # BTB Miss Percentage
system.cpu.branchPred.usedRAS                   82194                       # Number of times the RAS was used to get a target.
system.cpu.branchPred.RASInCorrect                827                       # Number of incorrect RAS predictions.
system.cpu_voltage_domain.voltage                   1                       # Voltage in Volts
system.cpu_clk_domain.clock                       500                       # Clock period in ticks
system.cpu.apic_clk_domain.clock                 8000                       # Clock period in ticks
system.cpu.workload.num_syscalls                   34                       # Number of system calls
system.cpu.numCycles                        192524785                       # number of cpu cycles simulated
system.cpu.numWorkItemsStarted                      0                       # number of work items this cpu started
system.cpu.numWorkItemsCompleted                    0                       # number of work items this cpu completed
system.cpu.committedInsts                    50000001                       # Number of instructions committed
system.cpu.committedOps                      65014465                       # Number of ops (including micro ops) committed
system.cpu.num_int_alu_accesses              62933457                       # Number of integer alu accesses
system.cpu.num_fp_alu_accesses                2948954                       # Number of float alu accesses
system.cpu.num_func_calls                      164791                       # number of times a function call or return occured
system.cpu.num_conditional_control_insts      2606507                       # number of instructions that are conditional controls
system.cpu.num_int_insts                     62933457                       # number of integer instructions
system.cpu.num_fp_insts                       2948954                       # number of float instructions
system.cpu.num_int_register_reads           147292995                       # number of times the integer registers were read
system.cpu.num_int_register_writes           57136355                       # number of times the integer registers were written
system.cpu.num_fp_register_reads              2505840                       # number of times the floating registers were read
system.cpu.num_fp_register_writes             2527243                       # number of times the floating registers were written
system.cpu.num_cc_register_reads             19215973                       # number of times the CC registers were read
system.cpu.num_cc_register_writes            26132447                       # number of times the CC registers were written
system.cpu.num_mem_refs                      25502514                       # number of memory refs
system.cpu.num_load_insts                    21863457                       # Number of load instructions
system.cpu.num_store_insts                    3639057                       # Number of store instructions
system.cpu.num_idle_cycles                          0                       # Number of idle cycles
system.cpu.num_busy_cycles                  192524785                       # Number of busy cycles
system.cpu.not_idle_fraction                        1                       # Percentage of non-idle cycles
system.cpu.idle_fraction                            0                       # Percentage of idle cycles
system.cpu.Branches                           2859327                       # Number of branches fetched
system.cpu.predictedBranches                  2115526                       # Number of branches predicted as taken
system.cpu.BranchMispred                       273192                       # Number of branch mispredictions
system.cpu.numBranchMispreadPercent          9.554416                       # Number of Branch Mispread Percent
system.cpu.op_class::No_OpClass                195747      0.30%      0.30% # Class of executed instruction
system.cpu.op_class::IntAlu                  36732834     56.50%     56.80% # Class of executed instruction
system.cpu.op_class::IntMult                    70748      0.11%     56.91% # Class of executed instruction
system.cpu.op_class::IntDiv                    629626      0.97%     57.88% # Class of executed instruction
system.cpu.op_class::FloatAdd                 1882996      2.90%     60.77% # Class of executed instruction
system.cpu.op_class::FloatCmp                       0      0.00%     60.77% # Class of executed instruction
system.cpu.op_class::FloatCvt                       0      0.00%     60.77% # Class of executed instruction
system.cpu.op_class::FloatMult                      0      0.00%     60.77% # Class of executed instruction
system.cpu.op_class::FloatDiv                       0      0.00%     60.77% # Class of executed instruction
system.cpu.op_class::FloatSqrt                      0      0.00%     60.77% # Class of executed instruction
system.cpu.op_class::SimdAdd                        0      0.00%     60.77% # Class of executed instruction
system.cpu.op_class::SimdAddAcc                     0      0.00%     60.77% # Class of executed instruction
system.cpu.op_class::SimdAlu                        0      0.00%     60.77% # Class of executed instruction
system.cpu.op_class::SimdCmp                        0      0.00%     60.77% # Class of executed instruction
system.cpu.op_class::SimdCvt                        0      0.00%     60.77% # Class of executed instruction
system.cpu.op_class::SimdMisc                       0      0.00%     60.77% # Class of executed instruction
system.cpu.op_class::SimdMult                       0      0.00%     60.77% # Class of executed instruction
system.cpu.op_class::SimdMultAcc                    0      0.00%     60.77% # Class of executed instruction
system.cpu.op_class::SimdShift                      0      0.00%     60.77% # Class of executed instruction
system.cpu.op_class::SimdShiftAcc                   0      0.00%     60.77% # Class of executed instruction
system.cpu.op_class::SimdSqrt                       0      0.00%     60.77% # Class of executed instruction
system.cpu.op_class::SimdFloatAdd                   0      0.00%     60.77% # Class of executed instruction
system.cpu.op_class::SimdFloatAlu                   0      0.00%     60.77% # Class of executed instruction
system.cpu.op_class::SimdFloatCmp                   0      0.00%     60.77% # Class of executed instruction
system.cpu.op_class::SimdFloatCvt                   0      0.00%     60.77% # Class of executed instruction
system.cpu.op_class::SimdFloatDiv                   0      0.00%     60.77% # Class of executed instruction
system.cpu.op_class::SimdFloatMisc                  0      0.00%     60.77% # Class of executed instruction
system.cpu.op_class::SimdFloatMult                  0      0.00%     60.77% # Class of executed instruction
system.cpu.op_class::SimdFloatMultAcc               0      0.00%     60.77% # Class of executed instruction
system.cpu.op_class::SimdFloatSqrt                  0      0.00%     60.77% # Class of executed instruction
system.cpu.op_class::MemRead                 21863457     33.63%     94.40% # Class of executed instruction
system.cpu.op_class::MemWrite                 3639057      5.60%    100.00% # Class of executed instruction
system.cpu.op_class::IprAccess                      0      0.00%    100.00% # Class of executed instruction
system.cpu.op_class::InstPrefetch                   0      0.00%    100.00% # Class of executed instruction
system.cpu.op_class::total                   65014465                       # Class of executed instruction
system.cpu.dcache.tags.replacements             43389                       # number of replacements
system.cpu.dcache.tags.tagsinuse          3983.066496                       # Cycle average of tags in use
system.cpu.dcache.tags.total_refs            25456642                       # Total number of references to valid blocks.
system.cpu.dcache.tags.sampled_refs             47485                       # Sample count of references to valid blocks.
system.cpu.dcache.tags.avg_refs            536.098600                       # Average number of references to valid blocks.
system.cpu.dcache.tags.warmup_cycle       19172564500                       # Cycle when the warmup percentage was hit.
system.cpu.dcache.tags.occ_blocks::cpu.data  3983.066496                       # Average occupied blocks per requestor
system.cpu.dcache.tags.occ_percent::cpu.data     0.972428                       # Average percentage of cache occupancy
system.cpu.dcache.tags.occ_percent::total     0.972428                       # Average percentage of cache occupancy
system.cpu.dcache.tags.occ_task_id_blocks::1024         4096                       # Occupied blocks per task id
system.cpu.dcache.tags.age_task_id_blocks_1024::0            7                       # Occupied blocks per task id
system.cpu.dcache.tags.age_task_id_blocks_1024::1           14                       # Occupied blocks per task id
system.cpu.dcache.tags.age_task_id_blocks_1024::2           30                       # Occupied blocks per task id
system.cpu.dcache.tags.age_task_id_blocks_1024::3         3060                       # Occupied blocks per task id
system.cpu.dcache.tags.age_task_id_blocks_1024::4          985                       # Occupied blocks per task id
system.cpu.dcache.tags.occ_task_id_percent::1024            1                       # Percentage of cache occupancy per task id
system.cpu.dcache.tags.tag_accesses          51055739                       # Number of tag accesses
system.cpu.dcache.tags.data_accesses         51055739                       # Number of data accesses
system.cpu.dcache.ReadReq_hits::cpu.data     21850162                       # number of ReadReq hits
system.cpu.dcache.ReadReq_hits::total        21850162                       # number of ReadReq hits
system.cpu.dcache.WriteReq_hits::cpu.data      3604725                       # number of WriteReq hits
system.cpu.dcache.WriteReq_hits::total        3604725                       # number of WriteReq hits
system.cpu.dcache.SoftPFReq_hits::cpu.data         1755                       # number of SoftPFReq hits
system.cpu.dcache.SoftPFReq_hits::total          1755                       # number of SoftPFReq hits
system.cpu.dcache.demand_hits::cpu.data      25454887                       # number of demand (read+write) hits
system.cpu.dcache.demand_hits::total         25454887                       # number of demand (read+write) hits
system.cpu.dcache.overall_hits::cpu.data     25456642                       # number of overall hits
system.cpu.dcache.overall_hits::total        25456642                       # number of overall hits
system.cpu.dcache.ReadReq_misses::cpu.data        11860                       # number of ReadReq misses
system.cpu.dcache.ReadReq_misses::total         11860                       # number of ReadReq misses
system.cpu.dcache.WriteReq_misses::cpu.data        34434                       # number of WriteReq misses
system.cpu.dcache.WriteReq_misses::total        34434                       # number of WriteReq misses
system.cpu.dcache.SoftPFReq_misses::cpu.data         1191                       # number of SoftPFReq misses
system.cpu.dcache.SoftPFReq_misses::total         1191                       # number of SoftPFReq misses
system.cpu.dcache.demand_misses::cpu.data        46294                       # number of demand (read+write) misses
system.cpu.dcache.demand_misses::total          46294                       # number of demand (read+write) misses
system.cpu.dcache.overall_misses::cpu.data        47485                       # number of overall misses
system.cpu.dcache.overall_misses::total         47485                       # number of overall misses
system.cpu.dcache.ReadReq_miss_latency::cpu.data    229025000                       # number of ReadReq miss cycles
system.cpu.dcache.ReadReq_miss_latency::total    229025000                       # number of ReadReq miss cycles
system.cpu.dcache.WriteReq_miss_latency::cpu.data    835800500                       # number of WriteReq miss cycles
system.cpu.dcache.WriteReq_miss_latency::total    835800500                       # number of WriteReq miss cycles
system.cpu.dcache.demand_miss_latency::cpu.data   1064825500                       # number of demand (read+write) miss cycles
system.cpu.dcache.demand_miss_latency::total   1064825500                       # number of demand (read+write) miss cycles
system.cpu.dcache.overall_miss_latency::cpu.data   1064825500                       # number of overall miss cycles
system.cpu.dcache.overall_miss_latency::total   1064825500                       # number of overall miss cycles
system.cpu.dcache.ReadReq_accesses::cpu.data     21862022                       # number of ReadReq accesses(hits+misses)
system.cpu.dcache.ReadReq_accesses::total     21862022                       # number of ReadReq accesses(hits+misses)
system.cpu.dcache.WriteReq_accesses::cpu.data      3639159                       # number of WriteReq accesses(hits+misses)
system.cpu.dcache.WriteReq_accesses::total      3639159                       # number of WriteReq accesses(hits+misses)
system.cpu.dcache.SoftPFReq_accesses::cpu.data         2946                       # number of SoftPFReq accesses(hits+misses)
system.cpu.dcache.SoftPFReq_accesses::total         2946                       # number of SoftPFReq accesses(hits+misses)
system.cpu.dcache.demand_accesses::cpu.data     25501181                       # number of demand (read+write) accesses
system.cpu.dcache.demand_accesses::total     25501181                       # number of demand (read+write) accesses
system.cpu.dcache.overall_accesses::cpu.data     25504127                       # number of overall (read+write) accesses
system.cpu.dcache.overall_accesses::total     25504127                       # number of overall (read+write) accesses
system.cpu.dcache.ReadReq_miss_rate::cpu.data     0.000542                       # miss rate for ReadReq accesses
system.cpu.dcache.ReadReq_miss_rate::total     0.000542                       # miss rate for ReadReq accesses
system.cpu.dcache.WriteReq_miss_rate::cpu.data     0.009462                       # miss rate for WriteReq accesses
system.cpu.dcache.WriteReq_miss_rate::total     0.009462                       # miss rate for WriteReq accesses
system.cpu.dcache.SoftPFReq_miss_rate::cpu.data     0.404277                       # miss rate for SoftPFReq accesses
system.cpu.dcache.SoftPFReq_miss_rate::total     0.404277                       # miss rate for SoftPFReq accesses
system.cpu.dcache.demand_miss_rate::cpu.data     0.001815                       # miss rate for demand accesses
system.cpu.dcache.demand_miss_rate::total     0.001815                       # miss rate for demand accesses
system.cpu.dcache.overall_miss_rate::cpu.data     0.001862                       # miss rate for overall accesses
system.cpu.dcache.overall_miss_rate::total     0.001862                       # miss rate for overall accesses
system.cpu.dcache.ReadReq_avg_miss_latency::cpu.data 19310.708263                       # average ReadReq miss latency
system.cpu.dcache.ReadReq_avg_miss_latency::total 19310.708263                       # average ReadReq miss latency
system.cpu.dcache.WriteReq_avg_miss_latency::cpu.data 24272.535866                       # average WriteReq miss latency
system.cpu.dcache.WriteReq_avg_miss_latency::total 24272.535866                       # average WriteReq miss latency
system.cpu.dcache.demand_avg_miss_latency::cpu.data 23001.371668                       # average overall miss latency
system.cpu.dcache.demand_avg_miss_latency::total 23001.371668                       # average overall miss latency
system.cpu.dcache.overall_avg_miss_latency::cpu.data 22424.460356                       # average overall miss latency
system.cpu.dcache.overall_avg_miss_latency::total 22424.460356                       # average overall miss latency
system.cpu.dcache.blocked_cycles::no_mshrs          355                       # number of cycles access was blocked
system.cpu.dcache.blocked_cycles::no_targets            0                       # number of cycles access was blocked
system.cpu.dcache.blocked::no_mshrs                 2                       # number of cycles access was blocked
system.cpu.dcache.blocked::no_targets               0                       # number of cycles access was blocked
system.cpu.dcache.avg_blocked_cycles::no_mshrs   177.500000                       # average number of cycles each access was blocked
system.cpu.dcache.avg_blocked_cycles::no_targets          nan                       # average number of cycles each access was blocked
system.cpu.dcache.fast_writes                       0                       # number of fast writes performed
system.cpu.dcache.cache_copies                      0                       # number of cache copies performed
system.cpu.dcache.writebacks::writebacks        42022                       # number of writebacks
system.cpu.dcache.writebacks::total             42022                       # number of writebacks
system.cpu.dcache.ReadReq_mshr_misses::cpu.data        11860                       # number of ReadReq MSHR misses
system.cpu.dcache.ReadReq_mshr_misses::total        11860                       # number of ReadReq MSHR misses
system.cpu.dcache.WriteReq_mshr_misses::cpu.data        34434                       # number of WriteReq MSHR misses
system.cpu.dcache.WriteReq_mshr_misses::total        34434                       # number of WriteReq MSHR misses
system.cpu.dcache.SoftPFReq_mshr_misses::cpu.data         1191                       # number of SoftPFReq MSHR misses
system.cpu.dcache.SoftPFReq_mshr_misses::total         1191                       # number of SoftPFReq MSHR misses
system.cpu.dcache.demand_mshr_misses::cpu.data        46294                       # number of demand (read+write) MSHR misses
system.cpu.dcache.demand_mshr_misses::total        46294                       # number of demand (read+write) MSHR misses
system.cpu.dcache.overall_mshr_misses::cpu.data        47485                       # number of overall MSHR misses
system.cpu.dcache.overall_mshr_misses::total        47485                       # number of overall MSHR misses
system.cpu.dcache.ReadReq_mshr_miss_latency::cpu.data    217165000                       # number of ReadReq MSHR miss cycles
system.cpu.dcache.ReadReq_mshr_miss_latency::total    217165000                       # number of ReadReq MSHR miss cycles
system.cpu.dcache.WriteReq_mshr_miss_latency::cpu.data    801366500                       # number of WriteReq MSHR miss cycles
system.cpu.dcache.WriteReq_mshr_miss_latency::total    801366500                       # number of WriteReq MSHR miss cycles
system.cpu.dcache.SoftPFReq_mshr_miss_latency::cpu.data     36963999                       # number of SoftPFReq MSHR miss cycles
system.cpu.dcache.SoftPFReq_mshr_miss_latency::total     36963999                       # number of SoftPFReq MSHR miss cycles
system.cpu.dcache.demand_mshr_miss_latency::cpu.data   1018531500                       # number of demand (read+write) MSHR miss cycles
system.cpu.dcache.demand_mshr_miss_latency::total   1018531500                       # number of demand (read+write) MSHR miss cycles
system.cpu.dcache.overall_mshr_miss_latency::cpu.data   1055495499                       # number of overall MSHR miss cycles
system.cpu.dcache.overall_mshr_miss_latency::total   1055495499                       # number of overall MSHR miss cycles
system.cpu.dcache.ReadReq_mshr_miss_rate::cpu.data     0.000542                       # mshr miss rate for ReadReq accesses
system.cpu.dcache.ReadReq_mshr_miss_rate::total     0.000542                       # mshr miss rate for ReadReq accesses
system.cpu.dcache.WriteReq_mshr_miss_rate::cpu.data     0.009462                       # mshr miss rate for WriteReq accesses
system.cpu.dcache.WriteReq_mshr_miss_rate::total     0.009462                       # mshr miss rate for WriteReq accesses
system.cpu.dcache.SoftPFReq_mshr_miss_rate::cpu.data     0.404277                       # mshr miss rate for SoftPFReq accesses
system.cpu.dcache.SoftPFReq_mshr_miss_rate::total     0.404277                       # mshr miss rate for SoftPFReq accesses
system.cpu.dcache.demand_mshr_miss_rate::cpu.data     0.001815                       # mshr miss rate for demand accesses
system.cpu.dcache.demand_mshr_miss_rate::total     0.001815                       # mshr miss rate for demand accesses
system.cpu.dcache.overall_mshr_miss_rate::cpu.data     0.001862                       # mshr miss rate for overall accesses
system.cpu.dcache.overall_mshr_miss_rate::total     0.001862                       # mshr miss rate for overall accesses
system.cpu.dcache.ReadReq_avg_mshr_miss_latency::cpu.data 18310.708263                       # average ReadReq mshr miss latency
system.cpu.dcache.ReadReq_avg_mshr_miss_latency::total 18310.708263                       # average ReadReq mshr miss latency
system.cpu.dcache.WriteReq_avg_mshr_miss_latency::cpu.data 23272.535866                       # average WriteReq mshr miss latency
system.cpu.dcache.WriteReq_avg_mshr_miss_latency::total 23272.535866                       # average WriteReq mshr miss latency
system.cpu.dcache.SoftPFReq_avg_mshr_miss_latency::cpu.data 31036.103275                       # average SoftPFReq mshr miss latency
system.cpu.dcache.SoftPFReq_avg_mshr_miss_latency::total 31036.103275                       # average SoftPFReq mshr miss latency
system.cpu.dcache.demand_avg_mshr_miss_latency::cpu.data 22001.371668                       # average overall mshr miss latency
system.cpu.dcache.demand_avg_mshr_miss_latency::total 22001.371668                       # average overall mshr miss latency
system.cpu.dcache.overall_avg_mshr_miss_latency::cpu.data 22227.977235                       # average overall mshr miss latency
system.cpu.dcache.overall_avg_mshr_miss_latency::total 22227.977235                       # average overall mshr miss latency
system.cpu.dcache.no_allocate_misses                0                       # Number of misses that were no-allocate
system.cpu.dtb_walker_cache.tags.replacements            0                       # number of replacements
system.cpu.dtb_walker_cache.tags.tagsinuse            0                       # Cycle average of tags in use
system.cpu.dtb_walker_cache.tags.total_refs            0                       # Total number of references to valid blocks.
system.cpu.dtb_walker_cache.tags.sampled_refs            0                       # Sample count of references to valid blocks.
system.cpu.dtb_walker_cache.tags.avg_refs          nan                       # Average number of references to valid blocks.
system.cpu.dtb_walker_cache.tags.warmup_cycle            0                       # Cycle when the warmup percentage was hit.
system.cpu.dtb_walker_cache.tags.tag_accesses            0                       # Number of tag accesses
system.cpu.dtb_walker_cache.tags.data_accesses            0                       # Number of data accesses
system.cpu.dtb_walker_cache.blocked_cycles::no_mshrs            0                       # number of cycles access was blocked
system.cpu.dtb_walker_cache.blocked_cycles::no_targets            0                       # number of cycles access was blocked
system.cpu.dtb_walker_cache.blocked::no_mshrs            0                       # number of cycles access was blocked
system.cpu.dtb_walker_cache.blocked::no_targets            0                       # number of cycles access was blocked
system.cpu.dtb_walker_cache.avg_blocked_cycles::no_mshrs          nan                       # average number of cycles each access was blocked
system.cpu.dtb_walker_cache.avg_blocked_cycles::no_targets          nan                       # average number of cycles each access was blocked
system.cpu.dtb_walker_cache.fast_writes             0                       # number of fast writes performed
system.cpu.dtb_walker_cache.cache_copies            0                       # number of cache copies performed
system.cpu.dtb_walker_cache.no_allocate_misses            0                       # Number of misses that were no-allocate
system.cpu.icache.tags.replacements               214                       # number of replacements
system.cpu.icache.tags.tagsinuse          2038.965083                       # Cycle average of tags in use
system.cpu.icache.tags.total_refs            69565598                       # Total number of references to valid blocks.
system.cpu.icache.tags.sampled_refs              2273                       # Sample count of references to valid blocks.
system.cpu.icache.tags.avg_refs          30605.190497                       # Average number of references to valid blocks.
system.cpu.icache.tags.warmup_cycle                 0                       # Cycle when the warmup percentage was hit.
system.cpu.icache.tags.occ_blocks::cpu.inst  2038.965083                       # Average occupied blocks per requestor
system.cpu.icache.tags.occ_percent::cpu.inst     0.497794                       # Average percentage of cache occupancy
system.cpu.icache.tags.occ_percent::total     0.497794                       # Average percentage of cache occupancy
system.cpu.icache.tags.occ_task_id_blocks::1024         2059                       # Occupied blocks per task id
system.cpu.icache.tags.age_task_id_blocks_1024::3            4                       # Occupied blocks per task id
system.cpu.icache.tags.age_task_id_blocks_1024::4         2055                       # Occupied blocks per task id
system.cpu.icache.tags.occ_task_id_percent::1024     0.502686                       # Percentage of cache occupancy per task id
system.cpu.icache.tags.tag_accesses         139138015                       # Number of tag accesses
system.cpu.icache.tags.data_accesses        139138015                       # Number of data accesses
system.cpu.icache.ReadReq_hits::cpu.inst     69565598                       # number of ReadReq hits
system.cpu.icache.ReadReq_hits::total        69565598                       # number of ReadReq hits
system.cpu.icache.demand_hits::cpu.inst      69565598                       # number of demand (read+write) hits
system.cpu.icache.demand_hits::total         69565598                       # number of demand (read+write) hits
system.cpu.icache.overall_hits::cpu.inst     69565598                       # number of overall hits
system.cpu.icache.overall_hits::total        69565598                       # number of overall hits
system.cpu.icache.ReadReq_misses::cpu.inst         2273                       # number of ReadReq misses
system.cpu.icache.ReadReq_misses::total          2273                       # number of ReadReq misses
system.cpu.icache.demand_misses::cpu.inst         2273                       # number of demand (read+write) misses
system.cpu.icache.demand_misses::total           2273                       # number of demand (read+write) misses
system.cpu.icache.overall_misses::cpu.inst         2273                       # number of overall misses
system.cpu.icache.overall_misses::total          2273                       # number of overall misses
system.cpu.icache.ReadReq_miss_latency::cpu.inst    174783500                       # number of ReadReq miss cycles
system.cpu.icache.ReadReq_miss_latency::total    174783500                       # number of ReadReq miss cycles
system.cpu.icache.demand_miss_latency::cpu.inst    174783500                       # number of demand (read+write) miss cycles
system.cpu.icache.demand_miss_latency::total    174783500                       # number of demand (read+write) miss cycles
system.cpu.icache.overall_miss_latency::cpu.inst    174783500                       # number of overall miss cycles
system.cpu.icache.overall_miss_latency::total    174783500                       # number of overall miss cycles
system.cpu.icache.ReadReq_accesses::cpu.inst     69567871                       # number of ReadReq accesses(hits+misses)
system.cpu.icache.ReadReq_accesses::total     69567871                       # number of ReadReq accesses(hits+misses)
system.cpu.icache.demand_accesses::cpu.inst     69567871                       # number of demand (read+write) accesses
system.cpu.icache.demand_accesses::total     69567871                       # number of demand (read+write) accesses
system.cpu.icache.overall_accesses::cpu.inst     69567871                       # number of overall (read+write) accesses
system.cpu.icache.overall_accesses::total     69567871                       # number of overall (read+write) accesses
system.cpu.icache.ReadReq_miss_rate::cpu.inst     0.000033                       # miss rate for ReadReq accesses
system.cpu.icache.ReadReq_miss_rate::total     0.000033                       # miss rate for ReadReq accesses
system.cpu.icache.demand_miss_rate::cpu.inst     0.000033                       # miss rate for demand accesses
system.cpu.icache.demand_miss_rate::total     0.000033                       # miss rate for demand accesses
system.cpu.icache.overall_miss_rate::cpu.inst     0.000033                       # miss rate for overall accesses
system.cpu.icache.overall_miss_rate::total     0.000033                       # miss rate for overall accesses
system.cpu.icache.ReadReq_avg_miss_latency::cpu.inst 76895.512538                       # average ReadReq miss latency
system.cpu.icache.ReadReq_avg_miss_latency::total 76895.512538                       # average ReadReq miss latency
system.cpu.icache.demand_avg_miss_latency::cpu.inst 76895.512538                       # average overall miss latency
system.cpu.icache.demand_avg_miss_latency::total 76895.512538                       # average overall miss latency
system.cpu.icache.overall_avg_miss_latency::cpu.inst 76895.512538                       # average overall miss latency
system.cpu.icache.overall_avg_miss_latency::total 76895.512538                       # average overall miss latency
system.cpu.icache.blocked_cycles::no_mshrs            0                       # number of cycles access was blocked
system.cpu.icache.blocked_cycles::no_targets            0                       # number of cycles access was blocked
system.cpu.icache.blocked::no_mshrs                 0                       # number of cycles access was blocked
system.cpu.icache.blocked::no_targets               0                       # number of cycles access was blocked
system.cpu.icache.avg_blocked_cycles::no_mshrs          nan                       # average number of cycles each access was blocked
system.cpu.icache.avg_blocked_cycles::no_targets          nan                       # average number of cycles each access was blocked
system.cpu.icache.fast_writes                       0                       # number of fast writes performed
system.cpu.icache.cache_copies                      0                       # number of cache copies performed
system.cpu.icache.writebacks::writebacks          214                       # number of writebacks
system.cpu.icache.writebacks::total               214                       # number of writebacks
system.cpu.icache.ReadReq_mshr_misses::cpu.inst         2273                       # number of ReadReq MSHR misses
system.cpu.icache.ReadReq_mshr_misses::total         2273                       # number of ReadReq MSHR misses
system.cpu.icache.demand_mshr_misses::cpu.inst         2273                       # number of demand (read+write) MSHR misses
system.cpu.icache.demand_mshr_misses::total         2273                       # number of demand (read+write) MSHR misses
system.cpu.icache.overall_mshr_misses::cpu.inst         2273                       # number of overall MSHR misses
system.cpu.icache.overall_mshr_misses::total         2273                       # number of overall MSHR misses
system.cpu.icache.ReadReq_mshr_miss_latency::cpu.inst    172510500                       # number of ReadReq MSHR miss cycles
system.cpu.icache.ReadReq_mshr_miss_latency::total    172510500                       # number of ReadReq MSHR miss cycles
system.cpu.icache.demand_mshr_miss_latency::cpu.inst    172510500                       # number of demand (read+write) MSHR miss cycles
system.cpu.icache.demand_mshr_miss_latency::total    172510500                       # number of demand (read+write) MSHR miss cycles
system.cpu.icache.overall_mshr_miss_latency::cpu.inst    172510500                       # number of overall MSHR miss cycles
system.cpu.icache.overall_mshr_miss_latency::total    172510500                       # number of overall MSHR miss cycles
system.cpu.icache.ReadReq_mshr_miss_rate::cpu.inst     0.000033                       # mshr miss rate for ReadReq accesses
system.cpu.icache.ReadReq_mshr_miss_rate::total     0.000033                       # mshr miss rate for ReadReq accesses
system.cpu.icache.demand_mshr_miss_rate::cpu.inst     0.000033                       # mshr miss rate for demand accesses
system.cpu.icache.demand_mshr_miss_rate::total     0.000033                       # mshr miss rate for demand accesses
system.cpu.icache.overall_mshr_miss_rate::cpu.inst     0.000033                       # mshr miss rate for overall accesses
system.cpu.icache.overall_mshr_miss_rate::total     0.000033                       # mshr miss rate for overall accesses
system.cpu.icache.ReadReq_avg_mshr_miss_latency::cpu.inst 75895.512538                       # average ReadReq mshr miss latency
system.cpu.icache.ReadReq_avg_mshr_miss_latency::total 75895.512538                       # average ReadReq mshr miss latency
system.cpu.icache.demand_avg_mshr_miss_latency::cpu.inst 75895.512538                       # average overall mshr miss latency
system.cpu.icache.demand_avg_mshr_miss_latency::total 75895.512538                       # average overall mshr miss latency
system.cpu.icache.overall_avg_mshr_miss_latency::cpu.inst 75895.512538                       # average overall mshr miss latency
system.cpu.icache.overall_avg_mshr_miss_latency::total 75895.512538                       # average overall mshr miss latency
system.cpu.icache.no_allocate_misses                0                       # Number of misses that were no-allocate
system.cpu.itb_walker_cache.tags.replacements            0                       # number of replacements
system.cpu.itb_walker_cache.tags.tagsinuse            0                       # Cycle average of tags in use
system.cpu.itb_walker_cache.tags.total_refs            0                       # Total number of references to valid blocks.
system.cpu.itb_walker_cache.tags.sampled_refs            0                       # Sample count of references to valid blocks.
system.cpu.itb_walker_cache.tags.avg_refs          nan                       # Average number of references to valid blocks.
system.cpu.itb_walker_cache.tags.warmup_cycle            0                       # Cycle when the warmup percentage was hit.
system.cpu.itb_walker_cache.tags.tag_accesses            0                       # Number of tag accesses
system.cpu.itb_walker_cache.tags.data_accesses            0                       # Number of data accesses
system.cpu.itb_walker_cache.blocked_cycles::no_mshrs            0                       # number of cycles access was blocked
system.cpu.itb_walker_cache.blocked_cycles::no_targets            0                       # number of cycles access was blocked
system.cpu.itb_walker_cache.blocked::no_mshrs            0                       # number of cycles access was blocked
system.cpu.itb_walker_cache.blocked::no_targets            0                       # number of cycles access was blocked
system.cpu.itb_walker_cache.avg_blocked_cycles::no_mshrs          nan                       # average number of cycles each access was blocked
system.cpu.itb_walker_cache.avg_blocked_cycles::no_targets          nan                       # average number of cycles each access was blocked
system.cpu.itb_walker_cache.fast_writes             0                       # number of fast writes performed
system.cpu.itb_walker_cache.cache_copies            0                       # number of cache copies performed
system.cpu.itb_walker_cache.no_allocate_misses            0                       # Number of misses that were no-allocate
system.l2.tags.replacements                         0                       # number of replacements
system.l2.tags.tagsinuse                  6102.111685                       # Cycle average of tags in use
system.l2.tags.total_refs                       24433                       # Total number of references to valid blocks.
system.l2.tags.sampled_refs                      5777                       # Sample count of references to valid blocks.
system.l2.tags.avg_refs                      4.229358                       # Average number of references to valid blocks.
system.l2.tags.warmup_cycle                         0                       # Cycle when the warmup percentage was hit.
system.l2.tags.occ_blocks::writebacks     2749.897308                       # Average occupied blocks per requestor
system.l2.tags.occ_blocks::cpu.inst       2233.617314                       # Average occupied blocks per requestor
system.l2.tags.occ_blocks::cpu.data       1118.597063                       # Average occupied blocks per requestor
system.l2.tags.occ_percent::writebacks       0.010490                       # Average percentage of cache occupancy
system.l2.tags.occ_percent::cpu.inst         0.008521                       # Average percentage of cache occupancy
system.l2.tags.occ_percent::cpu.data         0.004267                       # Average percentage of cache occupancy
system.l2.tags.occ_percent::total            0.023278                       # Average percentage of cache occupancy
system.l2.tags.occ_task_id_blocks::1024          5777                       # Occupied blocks per task id
system.l2.tags.age_task_id_blocks_1024::0            7                       # Occupied blocks per task id
system.l2.tags.age_task_id_blocks_1024::1           14                       # Occupied blocks per task id
system.l2.tags.age_task_id_blocks_1024::2           14                       # Occupied blocks per task id
system.l2.tags.age_task_id_blocks_1024::3         1179                       # Occupied blocks per task id
system.l2.tags.age_task_id_blocks_1024::4         4563                       # Occupied blocks per task id
system.l2.tags.occ_task_id_percent::1024     0.022038                       # Percentage of cache occupancy per task id
system.l2.tags.tag_accesses                    226933                       # Number of tag accesses
system.l2.tags.data_accesses                   226933                       # Number of data accesses
system.l2.WritebackDirty_hits::writebacks        42022                       # number of WritebackDirty hits
system.l2.WritebackDirty_hits::total            42022                       # number of WritebackDirty hits
system.l2.WritebackClean_hits::writebacks          214                       # number of WritebackClean hits
system.l2.WritebackClean_hits::total              214                       # number of WritebackClean hits
system.l2.ReadExReq_hits::cpu.data              28646                       # number of ReadExReq hits
system.l2.ReadExReq_hits::total                 28646                       # number of ReadExReq hits
system.l2.ReadCleanReq_hits::cpu.inst              12                       # number of ReadCleanReq hits
system.l2.ReadCleanReq_hits::total                 12                       # number of ReadCleanReq hits
system.l2.ReadSharedReq_hits::cpu.data          11571                       # number of ReadSharedReq hits
system.l2.ReadSharedReq_hits::total             11571                       # number of ReadSharedReq hits
system.l2.demand_hits::cpu.inst                    12                       # number of demand (read+write) hits
system.l2.demand_hits::cpu.data                 40217                       # number of demand (read+write) hits
system.l2.demand_hits::total                    40229                       # number of demand (read+write) hits
system.l2.overall_hits::cpu.inst                   12                       # number of overall hits
system.l2.overall_hits::cpu.data                40217                       # number of overall hits
system.l2.overall_hits::total                   40229                       # number of overall hits
system.l2.ReadExReq_misses::cpu.data             5788                       # number of ReadExReq misses
system.l2.ReadExReq_misses::total                5788                       # number of ReadExReq misses
system.l2.ReadCleanReq_misses::cpu.inst          2261                       # number of ReadCleanReq misses
system.l2.ReadCleanReq_misses::total             2261                       # number of ReadCleanReq misses
system.l2.ReadSharedReq_misses::cpu.data         1480                       # number of ReadSharedReq misses
system.l2.ReadSharedReq_misses::total            1480                       # number of ReadSharedReq misses
system.l2.demand_misses::cpu.inst                2261                       # number of demand (read+write) misses
system.l2.demand_misses::cpu.data                7268                       # number of demand (read+write) misses
system.l2.demand_misses::total                   9529                       # number of demand (read+write) misses
system.l2.overall_misses::cpu.inst               2261                       # number of overall misses
system.l2.overall_misses::cpu.data               7268                       # number of overall misses
system.l2.overall_misses::total                  9529                       # number of overall misses
system.l2.ReadExReq_miss_latency::cpu.data    448932500                       # number of ReadExReq miss cycles
system.l2.ReadExReq_miss_latency::total     448932500                       # number of ReadExReq miss cycles
system.l2.ReadCleanReq_miss_latency::cpu.inst    168975000                       # number of ReadCleanReq miss cycles
system.l2.ReadCleanReq_miss_latency::total    168975000                       # number of ReadCleanReq miss cycles
system.l2.ReadSharedReq_miss_latency::cpu.data    113056500                       # number of ReadSharedReq miss cycles
system.l2.ReadSharedReq_miss_latency::total    113056500                       # number of ReadSharedReq miss cycles
system.l2.demand_miss_latency::cpu.inst     168975000                       # number of demand (read+write) miss cycles
system.l2.demand_miss_latency::cpu.data     561989000                       # number of demand (read+write) miss cycles
system.l2.demand_miss_latency::total        730964000                       # number of demand (read+write) miss cycles
system.l2.overall_miss_latency::cpu.inst    168975000                       # number of overall miss cycles
system.l2.overall_miss_latency::cpu.data    561989000                       # number of overall miss cycles
system.l2.overall_miss_latency::total       730964000                       # number of overall miss cycles
system.l2.WritebackDirty_accesses::writebacks        42022                       # number of WritebackDirty accesses(hits+misses)
system.l2.WritebackDirty_accesses::total        42022                       # number of WritebackDirty accesses(hits+misses)
system.l2.WritebackClean_accesses::writebacks          214                       # number of WritebackClean accesses(hits+misses)
system.l2.WritebackClean_accesses::total          214                       # number of WritebackClean accesses(hits+misses)
system.l2.ReadExReq_accesses::cpu.data          34434                       # number of ReadExReq accesses(hits+misses)
system.l2.ReadExReq_accesses::total             34434                       # number of ReadExReq accesses(hits+misses)
system.l2.ReadCleanReq_accesses::cpu.inst         2273                       # number of ReadCleanReq accesses(hits+misses)
system.l2.ReadCleanReq_accesses::total           2273                       # number of ReadCleanReq accesses(hits+misses)
system.l2.ReadSharedReq_accesses::cpu.data        13051                       # number of ReadSharedReq accesses(hits+misses)
system.l2.ReadSharedReq_accesses::total         13051                       # number of ReadSharedReq accesses(hits+misses)
system.l2.demand_accesses::cpu.inst              2273                       # number of demand (read+write) accesses
system.l2.demand_accesses::cpu.data             47485                       # number of demand (read+write) accesses
system.l2.demand_accesses::total                49758                       # number of demand (read+write) accesses
system.l2.overall_accesses::cpu.inst             2273                       # number of overall (read+write) accesses
system.l2.overall_accesses::cpu.data            47485                       # number of overall (read+write) accesses
system.l2.overall_accesses::total               49758                       # number of overall (read+write) accesses
system.l2.ReadExReq_miss_rate::cpu.data      0.168090                       # miss rate for ReadExReq accesses
system.l2.ReadExReq_miss_rate::total         0.168090                       # miss rate for ReadExReq accesses
system.l2.ReadCleanReq_miss_rate::cpu.inst     0.994721                       # miss rate for ReadCleanReq accesses
system.l2.ReadCleanReq_miss_rate::total      0.994721                       # miss rate for ReadCleanReq accesses
system.l2.ReadSharedReq_miss_rate::cpu.data     0.113401                       # miss rate for ReadSharedReq accesses
system.l2.ReadSharedReq_miss_rate::total     0.113401                       # miss rate for ReadSharedReq accesses
system.l2.demand_miss_rate::cpu.inst         0.994721                       # miss rate for demand accesses
system.l2.demand_miss_rate::cpu.data         0.153059                       # miss rate for demand accesses
system.l2.demand_miss_rate::total            0.191507                       # miss rate for demand accesses
system.l2.overall_miss_rate::cpu.inst        0.994721                       # miss rate for overall accesses
system.l2.overall_miss_rate::cpu.data        0.153059                       # miss rate for overall accesses
system.l2.overall_miss_rate::total           0.191507                       # miss rate for overall accesses
system.l2.ReadExReq_avg_miss_latency::cpu.data 77562.629578                       # average ReadExReq miss latency
system.l2.ReadExReq_avg_miss_latency::total 77562.629578                       # average ReadExReq miss latency
system.l2.ReadCleanReq_avg_miss_latency::cpu.inst 74734.630694                       # average ReadCleanReq miss latency
system.l2.ReadCleanReq_avg_miss_latency::total 74734.630694                       # average ReadCleanReq miss latency
system.l2.ReadSharedReq_avg_miss_latency::cpu.data 76389.527027                       # average ReadSharedReq miss latency
system.l2.ReadSharedReq_avg_miss_latency::total 76389.527027                       # average ReadSharedReq miss latency
system.l2.demand_avg_miss_latency::cpu.inst 74734.630694                       # average overall miss latency
system.l2.demand_avg_miss_latency::cpu.data 77323.747936                       # average overall miss latency
system.l2.demand_avg_miss_latency::total 76709.413370                       # average overall miss latency
system.l2.overall_avg_miss_latency::cpu.inst 74734.630694                       # average overall miss latency
system.l2.overall_avg_miss_latency::cpu.data 77323.747936                       # average overall miss latency
system.l2.overall_avg_miss_latency::total 76709.413370                       # average overall miss latency
system.l2.blocked_cycles::no_mshrs                  0                       # number of cycles access was blocked
system.l2.blocked_cycles::no_targets                0                       # number of cycles access was blocked
system.l2.blocked::no_mshrs                         0                       # number of cycles access was blocked
system.l2.blocked::no_targets                       0                       # number of cycles access was blocked
system.l2.avg_blocked_cycles::no_mshrs            nan                       # average number of cycles each access was blocked
system.l2.avg_blocked_cycles::no_targets          nan                       # average number of cycles each access was blocked
system.l2.fast_writes                               0                       # number of fast writes performed
system.l2.cache_copies                              0                       # number of cache copies performed
system.l2.ReadExReq_mshr_misses::cpu.data         5788                       # number of ReadExReq MSHR misses
system.l2.ReadExReq_mshr_misses::total           5788                       # number of ReadExReq MSHR misses
system.l2.ReadCleanReq_mshr_misses::cpu.inst         2261                       # number of ReadCleanReq MSHR misses
system.l2.ReadCleanReq_mshr_misses::total         2261                       # number of ReadCleanReq MSHR misses
system.l2.ReadSharedReq_mshr_misses::cpu.data         1480                       # number of ReadSharedReq MSHR misses
system.l2.ReadSharedReq_mshr_misses::total         1480                       # number of ReadSharedReq MSHR misses
system.l2.demand_mshr_misses::cpu.inst           2261                       # number of demand (read+write) MSHR misses
system.l2.demand_mshr_misses::cpu.data           7268                       # number of demand (read+write) MSHR misses
system.l2.demand_mshr_misses::total              9529                       # number of demand (read+write) MSHR misses
system.l2.overall_mshr_misses::cpu.inst          2261                       # number of overall MSHR misses
system.l2.overall_mshr_misses::cpu.data          7268                       # number of overall MSHR misses
system.l2.overall_mshr_misses::total             9529                       # number of overall MSHR misses
system.l2.ReadExReq_mshr_miss_latency::cpu.data    391052500                       # number of ReadExReq MSHR miss cycles
system.l2.ReadExReq_mshr_miss_latency::total    391052500                       # number of ReadExReq MSHR miss cycles
system.l2.ReadCleanReq_mshr_miss_latency::cpu.inst    146365000                       # number of ReadCleanReq MSHR miss cycles
system.l2.ReadCleanReq_mshr_miss_latency::total    146365000                       # number of ReadCleanReq MSHR miss cycles
system.l2.ReadSharedReq_mshr_miss_latency::cpu.data     98256500                       # number of ReadSharedReq MSHR miss cycles
system.l2.ReadSharedReq_mshr_miss_latency::total     98256500                       # number of ReadSharedReq MSHR miss cycles
system.l2.demand_mshr_miss_latency::cpu.inst    146365000                       # number of demand (read+write) MSHR miss cycles
system.l2.demand_mshr_miss_latency::cpu.data    489309000                       # number of demand (read+write) MSHR miss cycles
system.l2.demand_mshr_miss_latency::total    635674000                       # number of demand (read+write) MSHR miss cycles
system.l2.overall_mshr_miss_latency::cpu.inst    146365000                       # number of overall MSHR miss cycles
system.l2.overall_mshr_miss_latency::cpu.data    489309000                       # number of overall MSHR miss cycles
system.l2.overall_mshr_miss_latency::total    635674000                       # number of overall MSHR miss cycles
system.l2.ReadExReq_mshr_miss_rate::cpu.data     0.168090                       # mshr miss rate for ReadExReq accesses
system.l2.ReadExReq_mshr_miss_rate::total     0.168090                       # mshr miss rate for ReadExReq accesses
system.l2.ReadCleanReq_mshr_miss_rate::cpu.inst     0.994721                       # mshr miss rate for ReadCleanReq accesses
system.l2.ReadCleanReq_mshr_miss_rate::total     0.994721                       # mshr miss rate for ReadCleanReq accesses
system.l2.ReadSharedReq_mshr_miss_rate::cpu.data     0.113401                       # mshr miss rate for ReadSharedReq accesses
system.l2.ReadSharedReq_mshr_miss_rate::total     0.113401                       # mshr miss rate for ReadSharedReq accesses
system.l2.demand_mshr_miss_rate::cpu.inst     0.994721                       # mshr miss rate for demand accesses
system.l2.demand_mshr_miss_rate::cpu.data     0.153059                       # mshr miss rate for demand accesses
system.l2.demand_mshr_miss_rate::total       0.191507                       # mshr miss rate for demand accesses
system.l2.overall_mshr_miss_rate::cpu.inst     0.994721                       # mshr miss rate for overall accesses
system.l2.overall_mshr_miss_rate::cpu.data     0.153059                       # mshr miss rate for overall accesses
system.l2.overall_mshr_miss_rate::total      0.191507                       # mshr miss rate for overall accesses
system.l2.ReadExReq_avg_mshr_miss_latency::cpu.data 67562.629578                       # average ReadExReq mshr miss latency
system.l2.ReadExReq_avg_mshr_miss_latency::total 67562.629578                       # average ReadExReq mshr miss latency
system.l2.ReadCleanReq_avg_mshr_miss_latency::cpu.inst 64734.630694                       # average ReadCleanReq mshr miss latency
system.l2.ReadCleanReq_avg_mshr_miss_latency::total 64734.630694                       # average ReadCleanReq mshr miss latency
system.l2.ReadSharedReq_avg_mshr_miss_latency::cpu.data 66389.527027                       # average ReadSharedReq mshr miss latency
system.l2.ReadSharedReq_avg_mshr_miss_latency::total 66389.527027                       # average ReadSharedReq mshr miss latency
system.l2.demand_avg_mshr_miss_latency::cpu.inst 64734.630694                       # average overall mshr miss latency
system.l2.demand_avg_mshr_miss_latency::cpu.data 67323.747936                       # average overall mshr miss latency
system.l2.demand_avg_mshr_miss_latency::total 66709.413370                       # average overall mshr miss latency
system.l2.overall_avg_mshr_miss_latency::cpu.inst 64734.630694                       # average overall mshr miss latency
system.l2.overall_avg_mshr_miss_latency::cpu.data 67323.747936                       # average overall mshr miss latency
system.l2.overall_avg_mshr_miss_latency::total 66709.413370                       # average overall mshr miss latency
system.l2.no_allocate_misses                        0                       # Number of misses that were no-allocate
system.membus.trans_dist::ReadResp               3741                       # Transaction distribution
system.membus.trans_dist::ReadExReq              5788                       # Transaction distribution
system.membus.trans_dist::ReadExResp             5788                       # Transaction distribution
system.membus.trans_dist::ReadSharedReq          3741                       # Transaction distribution
system.membus.pkt_count_system.l2.mem_side::system.mem_ctrls.port        19058                       # Packet count per connected master and slave (bytes)
system.membus.pkt_count_system.l2.mem_side::total        19058                       # Packet count per connected master and slave (bytes)
system.membus.pkt_count::total                  19058                       # Packet count per connected master and slave (bytes)
system.membus.pkt_size_system.l2.mem_side::system.mem_ctrls.port       304928                       # Cumulative packet size per connected master and slave (bytes)
system.membus.pkt_size_system.l2.mem_side::total       304928                       # Cumulative packet size per connected master and slave (bytes)
system.membus.pkt_size::total                  304928                       # Cumulative packet size per connected master and slave (bytes)
system.membus.snoops                                0                       # Total snoops (count)
system.membus.snoop_fanout::samples              9529                       # Request fanout histogram
system.membus.snoop_fanout::mean                    0                       # Request fanout histogram
system.membus.snoop_fanout::stdev                   0                       # Request fanout histogram
system.membus.snoop_fanout::underflows              0      0.00%      0.00% # Request fanout histogram
system.membus.snoop_fanout::0                    9529    100.00%    100.00% # Request fanout histogram
system.membus.snoop_fanout::1                       0      0.00%    100.00% # Request fanout histogram
system.membus.snoop_fanout::overflows               0      0.00%    100.00% # Request fanout histogram
system.membus.snoop_fanout::min_value               0                       # Request fanout histogram
system.membus.snoop_fanout::max_value               0                       # Request fanout histogram
system.membus.snoop_fanout::total                9529                       # Request fanout histogram
system.membus.reqLayer2.occupancy             9640500                       # Layer occupancy (ticks)
system.membus.reqLayer2.utilization               0.0                       # Layer utilization (%)
system.membus.respLayer1.occupancy           31680500                       # Layer occupancy (ticks)
system.membus.respLayer1.utilization              0.0                       # Layer utilization (%)
system.tol2bus.snoop_filter.tot_requests        93361                       # Total number of requests made to the snoop filter.
system.tol2bus.snoop_filter.hit_single_requests        43603                       # Number of requests hitting in the snoop filter with a single holder of the requested data.
system.tol2bus.snoop_filter.hit_multi_requests            0                       # Number of requests hitting in the snoop filter with multiple (>1) holders of the requested data.
system.tol2bus.snoop_filter.tot_snoops              0                       # Total number of snoops made to the snoop filter.
system.tol2bus.snoop_filter.hit_single_snoops            0                       # Number of snoops hitting in the snoop filter with a single holder of the requested data.
system.tol2bus.snoop_filter.hit_multi_snoops            0                       # Number of snoops hitting in the snoop filter with multiple (>1) holders of the requested data.
system.tol2bus.trans_dist::ReadResp             15324                       # Transaction distribution
system.tol2bus.trans_dist::WritebackDirty        42022                       # Transaction distribution
system.tol2bus.trans_dist::WritebackClean          214                       # Transaction distribution
system.tol2bus.trans_dist::CleanEvict            1367                       # Transaction distribution
system.tol2bus.trans_dist::ReadExReq            34434                       # Transaction distribution
system.tol2bus.trans_dist::ReadExResp           34434                       # Transaction distribution
system.tol2bus.trans_dist::ReadCleanReq          2273                       # Transaction distribution
system.tol2bus.trans_dist::ReadSharedReq        13051                       # Transaction distribution
system.tol2bus.pkt_count_system.cpu.icache.mem_side::system.l2.cpu_side         4760                       # Packet count per connected master and slave (bytes)
system.tol2bus.pkt_count_system.cpu.dcache.mem_side::system.l2.cpu_side       138359                       # Packet count per connected master and slave (bytes)
system.tol2bus.pkt_count::total                143119                       # Packet count per connected master and slave (bytes)
system.tol2bus.pkt_size_system.cpu.icache.mem_side::system.l2.cpu_side        79584                       # Cumulative packet size per connected master and slave (bytes)
system.tol2bus.pkt_size_system.cpu.dcache.mem_side::system.l2.cpu_side      2864224                       # Cumulative packet size per connected master and slave (bytes)
system.tol2bus.pkt_size::total                2943808                       # Cumulative packet size per connected master and slave (bytes)
system.tol2bus.snoops                               0                       # Total snoops (count)
system.tol2bus.snoop_fanout::samples            49758                       # Request fanout histogram
system.tol2bus.snoop_fanout::mean                   0                       # Request fanout histogram
system.tol2bus.snoop_fanout::stdev                  0                       # Request fanout histogram
system.tol2bus.snoop_fanout::underflows             0      0.00%      0.00% # Request fanout histogram
system.tol2bus.snoop_fanout::0                  49758    100.00%    100.00% # Request fanout histogram
system.tol2bus.snoop_fanout::1                      0      0.00%    100.00% # Request fanout histogram
system.tol2bus.snoop_fanout::2                      0      0.00%    100.00% # Request fanout histogram
system.tol2bus.snoop_fanout::3                      0      0.00%    100.00% # Request fanout histogram
system.tol2bus.snoop_fanout::4                      0      0.00%    100.00% # Request fanout histogram
system.tol2bus.snoop_fanout::overflows              0      0.00%    100.00% # Request fanout histogram
system.tol2bus.snoop_fanout::min_value              0                       # Request fanout histogram
system.tol2bus.snoop_fanout::max_value              0                       # Request fanout histogram
system.tol2bus.snoop_fanout::total              49758                       # Request fanout histogram
system.tol2bus.reqLayer0.occupancy           67798500                       # Layer occupancy (ticks)
system.tol2bus.reqLayer0.utilization              0.1                       # Layer utilization (%)
system.tol2bus.respLayer0.occupancy           2273000                       # Layer occupancy (ticks)
system.tol2bus.respLayer0.utilization             0.0                       # Layer utilization (%)
system.tol2bus.respLayer1.occupancy          47485000                       # Layer occupancy (ticks)
system.tol2bus.respLayer1.utilization             0.0                       # Layer utilization (%)

---------- End Simulation Statistics   ----------
