
---------- Begin Simulation Statistics ----------
sim_seconds                                  1.125893                       # Number of seconds simulated
sim_ticks                                1125892888500                       # Number of ticks simulated
final_tick                               1125892888500                       # Number of ticks from beginning of simulation (restored from checkpoints and never reset)
sim_freq                                 1000000000000                       # Frequency of simulated ticks
host_inst_rate                                 235574                       # Simulator instruction rate (inst/s)
host_op_rate                                   452214                       # Simulator op (including micro ops) rate (op/s)
host_tick_rate                             5304622802                       # Simulator tick rate (ticks/s)
host_mem_usage                                 849884                       # Number of bytes of host memory used
host_seconds                                   212.25                       # Real time elapsed on the host
sim_insts                                    50000000                       # Number of instructions simulated
sim_ops                                      95981252                       # Number of ops (including micro ops) simulated
system.voltage_domain.voltage                       1                       # Voltage in Volts
system.clk_domain.clock                          1000                       # Clock period in ticks
system.mem_ctrls.bytes_read::cpu.inst           44000                       # Number of bytes read from this memory
system.mem_ctrls.bytes_read::cpu.data       414822112                       # Number of bytes read from this memory
system.mem_ctrls.bytes_read::total          414866112                       # Number of bytes read from this memory
system.mem_ctrls.bytes_inst_read::cpu.inst        44000                       # Number of instructions bytes read from this memory
system.mem_ctrls.bytes_inst_read::total         44000                       # Number of instructions bytes read from this memory
system.mem_ctrls.bytes_written::writebacks    410615584                       # Number of bytes written to this memory
system.mem_ctrls.bytes_written::total       410615584                       # Number of bytes written to this memory
system.mem_ctrls.num_reads::cpu.inst             1375                       # Number of read requests responded to by this memory
system.mem_ctrls.num_reads::cpu.data         12963191                       # Number of read requests responded to by this memory
system.mem_ctrls.num_reads::total            12964566                       # Number of read requests responded to by this memory
system.mem_ctrls.num_writes::writebacks      12831737                       # Number of write requests responded to by this memory
system.mem_ctrls.num_writes::total           12831737                       # Number of write requests responded to by this memory
system.mem_ctrls.bw_read::cpu.inst              39080                       # Total read bandwidth from this memory (bytes/s)
system.mem_ctrls.bw_read::cpu.data          368438345                       # Total read bandwidth from this memory (bytes/s)
system.mem_ctrls.bw_read::total             368477425                       # Total read bandwidth from this memory (bytes/s)
system.mem_ctrls.bw_inst_read::cpu.inst         39080                       # Instruction read bandwidth from this memory (bytes/s)
system.mem_ctrls.bw_inst_read::total            39080                       # Instruction read bandwidth from this memory (bytes/s)
system.mem_ctrls.bw_write::writebacks       364702174                       # Write bandwidth from this memory (bytes/s)
system.mem_ctrls.bw_write::total            364702174                       # Write bandwidth from this memory (bytes/s)
system.mem_ctrls.bw_total::writebacks       364702174                       # Total bandwidth to/from this memory (bytes/s)
system.mem_ctrls.bw_total::cpu.inst             39080                       # Total bandwidth to/from this memory (bytes/s)
system.mem_ctrls.bw_total::cpu.data         368438345                       # Total bandwidth to/from this memory (bytes/s)
system.mem_ctrls.bw_total::total            733179599                       # Total bandwidth to/from this memory (bytes/s)
system.mem_ctrls.readReqs                    12964566                       # Number of read requests accepted
system.mem_ctrls.writeReqs                   12831737                       # Number of write requests accepted
system.mem_ctrls.readBursts                  12964566                       # Number of DRAM read bursts, including those serviced by the write queue
system.mem_ctrls.writeBursts                 12831737                       # Number of DRAM write bursts, including those merged in the write queue
system.mem_ctrls.bytesReadDRAM              829732224                       # Total number of bytes read from DRAM
system.mem_ctrls.bytesReadWrQ                       0                       # Total number of bytes read from write queue
system.mem_ctrls.bytesWritten               410683008                       # Total number of bytes written to DRAM
system.mem_ctrls.bytesReadSys               414866112                       # Total read bytes from the system interface side
system.mem_ctrls.bytesWrittenSys            410615584                       # Total written bytes from the system interface side
system.mem_ctrls.servicedByWrQ                      0                       # Number of DRAM read bursts serviced by the write queue
system.mem_ctrls.mergedWrBursts               6414797                       # Number of DRAM write bursts merged with an existing one
system.mem_ctrls.neitherReadNorWriteReqs          420                       # Number of requests that are neither read nor write
system.mem_ctrls.perBankRdBursts::0            810209                       # Per bank write bursts
system.mem_ctrls.perBankRdBursts::1            810105                       # Per bank write bursts
system.mem_ctrls.perBankRdBursts::2            810076                       # Per bank write bursts
system.mem_ctrls.perBankRdBursts::3            810053                       # Per bank write bursts
system.mem_ctrls.perBankRdBursts::4            810222                       # Per bank write bursts
system.mem_ctrls.perBankRdBursts::5            810157                       # Per bank write bursts
system.mem_ctrls.perBankRdBursts::6            809779                       # Per bank write bursts
system.mem_ctrls.perBankRdBursts::7            809946                       # Per bank write bursts
system.mem_ctrls.perBankRdBursts::8            809965                       # Per bank write bursts
system.mem_ctrls.perBankRdBursts::9            810188                       # Per bank write bursts
system.mem_ctrls.perBankRdBursts::10           810421                       # Per bank write bursts
system.mem_ctrls.perBankRdBursts::11           810714                       # Per bank write bursts
system.mem_ctrls.perBankRdBursts::12           810668                       # Per bank write bursts
system.mem_ctrls.perBankRdBursts::13           810708                       # Per bank write bursts
system.mem_ctrls.perBankRdBursts::14           810675                       # Per bank write bursts
system.mem_ctrls.perBankRdBursts::15           810680                       # Per bank write bursts
system.mem_ctrls.perBankWrBursts::0            400946                       # Per bank write bursts
system.mem_ctrls.perBankWrBursts::1            400931                       # Per bank write bursts
system.mem_ctrls.perBankWrBursts::2            400963                       # Per bank write bursts
system.mem_ctrls.perBankWrBursts::3            400940                       # Per bank write bursts
system.mem_ctrls.perBankWrBursts::4            401061                       # Per bank write bursts
system.mem_ctrls.perBankWrBursts::5            400946                       # Per bank write bursts
system.mem_ctrls.perBankWrBursts::6            400823                       # Per bank write bursts
system.mem_ctrls.perBankWrBursts::7            400875                       # Per bank write bursts
system.mem_ctrls.perBankWrBursts::8            400946                       # Per bank write bursts
system.mem_ctrls.perBankWrBursts::9            401015                       # Per bank write bursts
system.mem_ctrls.perBankWrBursts::10           401196                       # Per bank write bursts
system.mem_ctrls.perBankWrBursts::11           401283                       # Per bank write bursts
system.mem_ctrls.perBankWrBursts::12           401250                       # Per bank write bursts
system.mem_ctrls.perBankWrBursts::13           401251                       # Per bank write bursts
system.mem_ctrls.perBankWrBursts::14           401267                       # Per bank write bursts
system.mem_ctrls.perBankWrBursts::15           401229                       # Per bank write bursts
system.mem_ctrls.numRdRetry                         0                       # Number of times read queue was full causing retry
system.mem_ctrls.numWrRetry                         0                       # Number of times write queue was full causing retry
system.mem_ctrls.totGap                  1125892870500                       # Total gap between requests
system.mem_ctrls.readPktSize::0                     0                       # Read request sizes (log2)
system.mem_ctrls.readPktSize::1                     0                       # Read request sizes (log2)
system.mem_ctrls.readPktSize::2                     0                       # Read request sizes (log2)
system.mem_ctrls.readPktSize::3                     0                       # Read request sizes (log2)
system.mem_ctrls.readPktSize::4                     0                       # Read request sizes (log2)
system.mem_ctrls.readPktSize::5              12964566                       # Read request sizes (log2)
system.mem_ctrls.readPktSize::6                     0                       # Read request sizes (log2)
system.mem_ctrls.writePktSize::0                    0                       # Write request sizes (log2)
system.mem_ctrls.writePktSize::1                    0                       # Write request sizes (log2)
system.mem_ctrls.writePktSize::2                    0                       # Write request sizes (log2)
system.mem_ctrls.writePktSize::3                    0                       # Write request sizes (log2)
system.mem_ctrls.writePktSize::4                    0                       # Write request sizes (log2)
system.mem_ctrls.writePktSize::5             12831737                       # Write request sizes (log2)
system.mem_ctrls.writePktSize::6                    0                       # Write request sizes (log2)
system.mem_ctrls.rdQLenPdf::0                12964565                       # What read queue length does an incoming req see
system.mem_ctrls.rdQLenPdf::1                       1                       # What read queue length does an incoming req see
system.mem_ctrls.rdQLenPdf::2                       0                       # What read queue length does an incoming req see
system.mem_ctrls.rdQLenPdf::3                       0                       # What read queue length does an incoming req see
system.mem_ctrls.rdQLenPdf::4                       0                       # What read queue length does an incoming req see
system.mem_ctrls.rdQLenPdf::5                       0                       # What read queue length does an incoming req see
system.mem_ctrls.rdQLenPdf::6                       0                       # What read queue length does an incoming req see
system.mem_ctrls.rdQLenPdf::7                       0                       # What read queue length does an incoming req see
system.mem_ctrls.rdQLenPdf::8                       0                       # What read queue length does an incoming req see
system.mem_ctrls.rdQLenPdf::9                       0                       # What read queue length does an incoming req see
system.mem_ctrls.rdQLenPdf::10                      0                       # What read queue length does an incoming req see
system.mem_ctrls.rdQLenPdf::11                      0                       # What read queue length does an incoming req see
system.mem_ctrls.rdQLenPdf::12                      0                       # What read queue length does an incoming req see
system.mem_ctrls.rdQLenPdf::13                      0                       # What read queue length does an incoming req see
system.mem_ctrls.rdQLenPdf::14                      0                       # What read queue length does an incoming req see
system.mem_ctrls.rdQLenPdf::15                      0                       # What read queue length does an incoming req see
system.mem_ctrls.rdQLenPdf::16                      0                       # What read queue length does an incoming req see
system.mem_ctrls.rdQLenPdf::17                      0                       # What read queue length does an incoming req see
system.mem_ctrls.rdQLenPdf::18                      0                       # What read queue length does an incoming req see
system.mem_ctrls.rdQLenPdf::19                      0                       # What read queue length does an incoming req see
system.mem_ctrls.rdQLenPdf::20                      0                       # What read queue length does an incoming req see
system.mem_ctrls.rdQLenPdf::21                      0                       # What read queue length does an incoming req see
system.mem_ctrls.rdQLenPdf::22                      0                       # What read queue length does an incoming req see
system.mem_ctrls.rdQLenPdf::23                      0                       # What read queue length does an incoming req see
system.mem_ctrls.rdQLenPdf::24                      0                       # What read queue length does an incoming req see
system.mem_ctrls.rdQLenPdf::25                      0                       # What read queue length does an incoming req see
system.mem_ctrls.rdQLenPdf::26                      0                       # What read queue length does an incoming req see
system.mem_ctrls.rdQLenPdf::27                      0                       # What read queue length does an incoming req see
system.mem_ctrls.rdQLenPdf::28                      0                       # What read queue length does an incoming req see
system.mem_ctrls.rdQLenPdf::29                      0                       # What read queue length does an incoming req see
system.mem_ctrls.rdQLenPdf::30                      0                       # What read queue length does an incoming req see
system.mem_ctrls.rdQLenPdf::31                      0                       # What read queue length does an incoming req see
system.mem_ctrls.wrQLenPdf::0                       1                       # What write queue length does an incoming req see
system.mem_ctrls.wrQLenPdf::1                       1                       # What write queue length does an incoming req see
system.mem_ctrls.wrQLenPdf::2                       1                       # What write queue length does an incoming req see
system.mem_ctrls.wrQLenPdf::3                       1                       # What write queue length does an incoming req see
system.mem_ctrls.wrQLenPdf::4                       1                       # What write queue length does an incoming req see
system.mem_ctrls.wrQLenPdf::5                       1                       # What write queue length does an incoming req see
system.mem_ctrls.wrQLenPdf::6                       1                       # What write queue length does an incoming req see
system.mem_ctrls.wrQLenPdf::7                       1                       # What write queue length does an incoming req see
system.mem_ctrls.wrQLenPdf::8                       1                       # What write queue length does an incoming req see
system.mem_ctrls.wrQLenPdf::9                       1                       # What write queue length does an incoming req see
system.mem_ctrls.wrQLenPdf::10                      1                       # What write queue length does an incoming req see
system.mem_ctrls.wrQLenPdf::11                      1                       # What write queue length does an incoming req see
system.mem_ctrls.wrQLenPdf::12                      1                       # What write queue length does an incoming req see
system.mem_ctrls.wrQLenPdf::13                      1                       # What write queue length does an incoming req see
system.mem_ctrls.wrQLenPdf::14                      1                       # What write queue length does an incoming req see
system.mem_ctrls.wrQLenPdf::15                     13                       # What write queue length does an incoming req see
system.mem_ctrls.wrQLenPdf::16                     15                       # What write queue length does an incoming req see
system.mem_ctrls.wrQLenPdf::17                 401055                       # What write queue length does an incoming req see
system.mem_ctrls.wrQLenPdf::18                 401056                       # What write queue length does an incoming req see
system.mem_ctrls.wrQLenPdf::19                 401056                       # What write queue length does an incoming req see
system.mem_ctrls.wrQLenPdf::20                 401056                       # What write queue length does an incoming req see
system.mem_ctrls.wrQLenPdf::21                 401056                       # What write queue length does an incoming req see
system.mem_ctrls.wrQLenPdf::22                 401056                       # What write queue length does an incoming req see
system.mem_ctrls.wrQLenPdf::23                 401056                       # What write queue length does an incoming req see
system.mem_ctrls.wrQLenPdf::24                 401056                       # What write queue length does an incoming req see
system.mem_ctrls.wrQLenPdf::25                 401056                       # What write queue length does an incoming req see
system.mem_ctrls.wrQLenPdf::26                 401056                       # What write queue length does an incoming req see
system.mem_ctrls.wrQLenPdf::27                 401057                       # What write queue length does an incoming req see
system.mem_ctrls.wrQLenPdf::28                 401057                       # What write queue length does an incoming req see
system.mem_ctrls.wrQLenPdf::29                 401056                       # What write queue length does an incoming req see
system.mem_ctrls.wrQLenPdf::30                 401056                       # What write queue length does an incoming req see
system.mem_ctrls.wrQLenPdf::31                 401056                       # What write queue length does an incoming req see
system.mem_ctrls.wrQLenPdf::32                 401056                       # What write queue length does an incoming req see
system.mem_ctrls.wrQLenPdf::33                      0                       # What write queue length does an incoming req see
system.mem_ctrls.wrQLenPdf::34                      0                       # What write queue length does an incoming req see
system.mem_ctrls.wrQLenPdf::35                      0                       # What write queue length does an incoming req see
system.mem_ctrls.wrQLenPdf::36                      0                       # What write queue length does an incoming req see
system.mem_ctrls.wrQLenPdf::37                      0                       # What write queue length does an incoming req see
system.mem_ctrls.wrQLenPdf::38                      0                       # What write queue length does an incoming req see
system.mem_ctrls.wrQLenPdf::39                      0                       # What write queue length does an incoming req see
system.mem_ctrls.wrQLenPdf::40                      0                       # What write queue length does an incoming req see
system.mem_ctrls.wrQLenPdf::41                      0                       # What write queue length does an incoming req see
system.mem_ctrls.wrQLenPdf::42                      0                       # What write queue length does an incoming req see
system.mem_ctrls.wrQLenPdf::43                      0                       # What write queue length does an incoming req see
system.mem_ctrls.wrQLenPdf::44                      0                       # What write queue length does an incoming req see
system.mem_ctrls.wrQLenPdf::45                      0                       # What write queue length does an incoming req see
system.mem_ctrls.wrQLenPdf::46                      0                       # What write queue length does an incoming req see
system.mem_ctrls.wrQLenPdf::47                      0                       # What write queue length does an incoming req see
system.mem_ctrls.wrQLenPdf::48                      0                       # What write queue length does an incoming req see
system.mem_ctrls.wrQLenPdf::49                      0                       # What write queue length does an incoming req see
system.mem_ctrls.wrQLenPdf::50                      0                       # What write queue length does an incoming req see
system.mem_ctrls.wrQLenPdf::51                      0                       # What write queue length does an incoming req see
system.mem_ctrls.wrQLenPdf::52                      0                       # What write queue length does an incoming req see
system.mem_ctrls.wrQLenPdf::53                      0                       # What write queue length does an incoming req see
system.mem_ctrls.wrQLenPdf::54                      0                       # What write queue length does an incoming req see
system.mem_ctrls.wrQLenPdf::55                      0                       # What write queue length does an incoming req see
system.mem_ctrls.wrQLenPdf::56                      0                       # What write queue length does an incoming req see
system.mem_ctrls.wrQLenPdf::57                      0                       # What write queue length does an incoming req see
system.mem_ctrls.wrQLenPdf::58                      0                       # What write queue length does an incoming req see
system.mem_ctrls.wrQLenPdf::59                      0                       # What write queue length does an incoming req see
system.mem_ctrls.wrQLenPdf::60                      0                       # What write queue length does an incoming req see
system.mem_ctrls.wrQLenPdf::61                      0                       # What write queue length does an incoming req see
system.mem_ctrls.wrQLenPdf::62                      0                       # What write queue length does an incoming req see
system.mem_ctrls.wrQLenPdf::63                      0                       # What write queue length does an incoming req see
system.mem_ctrls.bytesPerActivate::samples      1437156                       # Bytes accessed per row activation
system.mem_ctrls.bytesPerActivate::mean    863.103652                       # Bytes accessed per row activation
system.mem_ctrls.bytesPerActivate::gmean   760.853358                       # Bytes accessed per row activation
system.mem_ctrls.bytesPerActivate::stdev   287.642749                       # Bytes accessed per row activation
system.mem_ctrls.bytesPerActivate::0-127        48920      3.40%      3.40% # Bytes accessed per row activation
system.mem_ctrls.bytesPerActivate::128-255        48535      3.38%      6.78% # Bytes accessed per row activation
system.mem_ctrls.bytesPerActivate::256-383        49632      3.45%     10.23% # Bytes accessed per row activation
system.mem_ctrls.bytesPerActivate::384-511        72166      5.02%     15.26% # Bytes accessed per row activation
system.mem_ctrls.bytesPerActivate::512-639        65657      4.57%     19.82% # Bytes accessed per row activation
system.mem_ctrls.bytesPerActivate::640-767        51033      3.55%     23.38% # Bytes accessed per row activation
system.mem_ctrls.bytesPerActivate::768-895        47379      3.30%     26.67% # Bytes accessed per row activation
system.mem_ctrls.bytesPerActivate::896-1023        55397      3.85%     30.53% # Bytes accessed per row activation
system.mem_ctrls.bytesPerActivate::1024-1151       998437     69.47%    100.00% # Bytes accessed per row activation
system.mem_ctrls.bytesPerActivate::total      1437156                       # Bytes accessed per row activation
system.mem_ctrls.rdPerTurnAround::samples       401056                       # Reads before turning the bus around for writes
system.mem_ctrls.rdPerTurnAround::mean      32.326067                       # Reads before turning the bus around for writes
system.mem_ctrls.rdPerTurnAround::gmean     32.002695                       # Reads before turning the bus around for writes
system.mem_ctrls.rdPerTurnAround::stdev    136.558873                       # Reads before turning the bus around for writes
system.mem_ctrls.rdPerTurnAround::0-4095       401053    100.00%    100.00% # Reads before turning the bus around for writes
system.mem_ctrls.rdPerTurnAround::4096-8191            1      0.00%    100.00% # Reads before turning the bus around for writes
system.mem_ctrls.rdPerTurnAround::36864-40959            1      0.00%    100.00% # Reads before turning the bus around for writes
system.mem_ctrls.rdPerTurnAround::73728-77823            1      0.00%    100.00% # Reads before turning the bus around for writes
system.mem_ctrls.rdPerTurnAround::total        401056                       # Reads before turning the bus around for writes
system.mem_ctrls.wrPerTurnAround::samples       401056                       # Writes before turning the bus around for reads
system.mem_ctrls.wrPerTurnAround::mean      16.000065                       # Writes before turning the bus around for reads
system.mem_ctrls.wrPerTurnAround::gmean     16.000061                       # Writes before turning the bus around for reads
system.mem_ctrls.wrPerTurnAround::stdev      0.011165                       # Writes before turning the bus around for reads
system.mem_ctrls.wrPerTurnAround::16           401042    100.00%    100.00% # Writes before turning the bus around for reads
system.mem_ctrls.wrPerTurnAround::17                2      0.00%    100.00% # Writes before turning the bus around for reads
system.mem_ctrls.wrPerTurnAround::18               12      0.00%    100.00% # Writes before turning the bus around for reads
system.mem_ctrls.wrPerTurnAround::total        401056                       # Writes before turning the bus around for reads
system.mem_ctrls.totQLat                  94048375250                       # Total ticks spent queuing
system.mem_ctrls.totMemAccLat            337133987750                       # Total ticks spent from burst creation until serviced by the DRAM
system.mem_ctrls.totBusLat                64822830000                       # Total ticks spent in databus transfers
system.mem_ctrls.avgQLat                      7254.26                       # Average queueing delay per DRAM burst
system.mem_ctrls.avgBusLat                    5000.00                       # Average bus latency per DRAM burst
system.mem_ctrls.avgMemAccLat                26004.26                       # Average memory access latency per DRAM burst
system.mem_ctrls.avgRdBW                       736.95                       # Average DRAM read bandwidth in MiByte/s
system.mem_ctrls.avgWrBW                       364.76                       # Average achieved write bandwidth in MiByte/s
system.mem_ctrls.avgRdBWSys                    368.48                       # Average system read bandwidth in MiByte/s
system.mem_ctrls.avgWrBWSys                    364.70                       # Average system write bandwidth in MiByte/s
system.mem_ctrls.peakBW                      12800.00                       # Theoretical peak bandwidth in MiByte/s
system.mem_ctrls.busUtil                         8.61                       # Data bus utilization in percentage
system.mem_ctrls.busUtilRead                     5.76                       # Data bus utilization in percentage for reads
system.mem_ctrls.busUtilWrite                    2.85                       # Data bus utilization in percentage for writes
system.mem_ctrls.avgRdQLen                       1.00                       # Average read queue length when enqueuing
system.mem_ctrls.avgWrQLen                      25.56                       # Average write queue length when enqueuing
system.mem_ctrls.readRowHits                 11981889                       # Number of row buffer hits during reads
system.mem_ctrls.writeRowHits                 5962442                       # Number of row buffer hits during writes
system.mem_ctrls.readRowHitRate                 92.42                       # Row buffer hit rate for reads
system.mem_ctrls.writeRowHitRate                92.92                       # Row buffer hit rate for writes
system.mem_ctrls.avgGap                      43645.51                       # Average gap between requests
system.mem_ctrls.pageHitRate                    92.58                       # Row buffer hit rate, read and write combined
system.mem_ctrls_0.actEnergy               5433024240                       # Energy for activate commands per rank (pJ)
system.mem_ctrls_0.preEnergy               2964447750                       # Energy for precharge commands per rank (pJ)
system.mem_ctrls_0.readEnergy             50548188600                       # Energy for read commands per rank (pJ)
system.mem_ctrls_0.writeEnergy            20784502800                       # Energy for write commands per rank (pJ)
system.mem_ctrls_0.refreshEnergy          73537776000                       # Energy for refresh commands per rank (pJ)
system.mem_ctrls_0.actBackEnergy         392052697785                       # Energy for active background per rank (pJ)
system.mem_ctrls_0.preBackEnergy         331629330750                       # Energy for precharge background per rank (pJ)
system.mem_ctrls_0.totalEnergy           876949967925                       # Total energy per rank (pJ)
system.mem_ctrls_0.averagePower            778.893500                       # Core power per rank (mW)
system.mem_ctrls_0.memoryStateTime::IDLE 543368524000                       # Time in different power states
system.mem_ctrls_0.memoryStateTime::REF   37596000000                       # Time in different power states
system.mem_ctrls_0.memoryStateTime::PRE_PDN            0                       # Time in different power states
system.mem_ctrls_0.memoryStateTime::ACT  544927499750                       # Time in different power states
system.mem_ctrls_0.memoryStateTime::ACT_PDN            0                       # Time in different power states
system.mem_ctrls_1.actEnergy               5431867560                       # Energy for activate commands per rank (pJ)
system.mem_ctrls_1.preEnergy               2963816625                       # Energy for precharge commands per rank (pJ)
system.mem_ctrls_1.readEnergy             50575348200                       # Energy for read commands per rank (pJ)
system.mem_ctrls_1.writeEnergy            20797048080                       # Energy for write commands per rank (pJ)
system.mem_ctrls_1.refreshEnergy          73537776000                       # Energy for refresh commands per rank (pJ)
system.mem_ctrls_1.actBackEnergy         392516967060                       # Energy for active background per rank (pJ)
system.mem_ctrls_1.preBackEnergy         331222077000                       # Energy for precharge background per rank (pJ)
system.mem_ctrls_1.totalEnergy           877044900525                       # Total energy per rank (pJ)
system.mem_ctrls_1.averagePower            778.977817                       # Core power per rank (mW)
system.mem_ctrls_1.memoryStateTime::IDLE 542697189250                       # Time in different power states
system.mem_ctrls_1.memoryStateTime::REF   37596000000                       # Time in different power states
system.mem_ctrls_1.memoryStateTime::PRE_PDN            0                       # Time in different power states
system.mem_ctrls_1.memoryStateTime::ACT  545599517000                       # Time in different power states
system.mem_ctrls_1.memoryStateTime::ACT_PDN            0                       # Time in different power states
system.cpu.branchPred.lookups                 6543945                       # Number of BP lookups
system.cpu.branchPred.condPredicted           6543945                       # Number of conditional branches predicted
system.cpu.branchPred.condIncorrect              3470                       # Number of conditional branches incorrect
system.cpu.branchPred.BTBLookups              6535561                       # Number of BTB lookups
system.cpu.branchPred.BTBHits                 6527013                       # Number of BTB hits
system.cpu.branchPred.BTBCorrect                    0                       # Number of correct BTB predictions (this stat may not work properly.
system.cpu.branchPred.BTBHitPct             99.869208                       # BTB Hit Percentage
system.cpu.branchPred.BTBMissPct             0.130792                       # BTB Miss Percentage
system.cpu.branchPred.usedRAS                    3769                       # Number of times the RAS was used to get a target.
system.cpu.branchPred.RASInCorrect                227                       # Number of incorrect RAS predictions.
system.cpu_voltage_domain.voltage                   1                       # Voltage in Volts
system.cpu_clk_domain.clock                       500                       # Clock period in ticks
system.cpu.apic_clk_domain.clock                 8000                       # Clock period in ticks
system.cpu.workload.num_syscalls                  108                       # Number of system calls
system.cpu.numCycles                       2251785777                       # number of cpu cycles simulated
system.cpu.numWorkItemsStarted                      0                       # number of work items this cpu started
system.cpu.numWorkItemsCompleted                    0                       # number of work items this cpu completed
system.cpu.committedInsts                    50000000                       # Number of instructions committed
system.cpu.committedOps                      95981252                       # Number of ops (including micro ops) committed
system.cpu.num_int_alu_accesses              95975786                       # Number of integer alu accesses
system.cpu.num_fp_alu_accesses               51833399                       # Number of float alu accesses
system.cpu.num_func_calls                        7602                       # number of times a function call or return occured
system.cpu.num_conditional_control_insts      6532565                       # number of instructions that are conditional controls
system.cpu.num_int_insts                     95975786                       # number of integer instructions
system.cpu.num_fp_insts                      51833399                       # number of float instructions
system.cpu.num_int_register_reads           219093281                       # number of times the integer registers were read
system.cpu.num_int_register_writes           37404609                       # number of times the integer registers were written
system.cpu.num_fp_register_reads             51836935                       # number of times the floating registers were read
system.cpu.num_fp_register_writes                4221                       # number of times the floating registers were written
system.cpu.num_cc_register_reads             34496136                       # number of times the CC registers were read
system.cpu.num_cc_register_writes            29304313                       # number of times the CC registers were written
system.cpu.num_mem_refs                      53378426                       # number of memory refs
system.cpu.num_load_insts                     1350125                       # Number of load instructions
system.cpu.num_store_insts                   52028301                       # Number of store instructions
system.cpu.num_idle_cycles                          0                       # Number of idle cycles
system.cpu.num_busy_cycles                 2251785777                       # Number of busy cycles
system.cpu.not_idle_fraction                        1                       # Percentage of non-idle cycles
system.cpu.idle_fraction                            0                       # Percentage of idle cycles
system.cpu.Branches                           6543945                       # Number of branches fetched
system.cpu.predictedBranches                  6530782                       # Number of branches predicted as taken
system.cpu.BranchMispred                         3470                       # Number of branch mispredictions
system.cpu.numBranchMispreadPercent          0.053026                       # Number of Branch Mispread Percent
system.cpu.op_class::No_OpClass                  1614      0.00%      0.00% # Class of executed instruction
system.cpu.op_class::IntAlu                  42596796     44.38%     44.38% # Class of executed instruction
system.cpu.op_class::IntMult                      725      0.00%     44.38% # Class of executed instruction
system.cpu.op_class::IntDiv                        21      0.00%     44.38% # Class of executed instruction
system.cpu.op_class::FloatAdd                    3670      0.00%     44.39% # Class of executed instruction
system.cpu.op_class::FloatCmp                       0      0.00%     44.39% # Class of executed instruction
system.cpu.op_class::FloatCvt                       0      0.00%     44.39% # Class of executed instruction
system.cpu.op_class::FloatMult                      0      0.00%     44.39% # Class of executed instruction
system.cpu.op_class::FloatDiv                       0      0.00%     44.39% # Class of executed instruction
system.cpu.op_class::FloatSqrt                      0      0.00%     44.39% # Class of executed instruction
system.cpu.op_class::SimdAdd                        0      0.00%     44.39% # Class of executed instruction
system.cpu.op_class::SimdAddAcc                     0      0.00%     44.39% # Class of executed instruction
system.cpu.op_class::SimdAlu                        0      0.00%     44.39% # Class of executed instruction
system.cpu.op_class::SimdCmp                        0      0.00%     44.39% # Class of executed instruction
system.cpu.op_class::SimdCvt                        0      0.00%     44.39% # Class of executed instruction
system.cpu.op_class::SimdMisc                       0      0.00%     44.39% # Class of executed instruction
system.cpu.op_class::SimdMult                       0      0.00%     44.39% # Class of executed instruction
system.cpu.op_class::SimdMultAcc                    0      0.00%     44.39% # Class of executed instruction
system.cpu.op_class::SimdShift                      0      0.00%     44.39% # Class of executed instruction
system.cpu.op_class::SimdShiftAcc                   0      0.00%     44.39% # Class of executed instruction
system.cpu.op_class::SimdSqrt                       0      0.00%     44.39% # Class of executed instruction
system.cpu.op_class::SimdFloatAdd                   0      0.00%     44.39% # Class of executed instruction
system.cpu.op_class::SimdFloatAlu                   0      0.00%     44.39% # Class of executed instruction
system.cpu.op_class::SimdFloatCmp                   0      0.00%     44.39% # Class of executed instruction
system.cpu.op_class::SimdFloatCvt                   0      0.00%     44.39% # Class of executed instruction
system.cpu.op_class::SimdFloatDiv                   0      0.00%     44.39% # Class of executed instruction
system.cpu.op_class::SimdFloatMisc                  0      0.00%     44.39% # Class of executed instruction
system.cpu.op_class::SimdFloatMult                  0      0.00%     44.39% # Class of executed instruction
system.cpu.op_class::SimdFloatMultAcc               0      0.00%     44.39% # Class of executed instruction
system.cpu.op_class::SimdFloatSqrt                  0      0.00%     44.39% # Class of executed instruction
system.cpu.op_class::MemRead                  1350125      1.41%     45.79% # Class of executed instruction
system.cpu.op_class::MemWrite                52028301     54.21%    100.00% # Class of executed instruction
system.cpu.op_class::IprAccess                      0      0.00%    100.00% # Class of executed instruction
system.cpu.op_class::InstPrefetch                   0      0.00%    100.00% # Class of executed instruction
system.cpu.op_class::total                   95981252                       # Class of executed instruction
system.cpu.dcache.tags.replacements          12959113                       # number of replacements
system.cpu.dcache.tags.tagsinuse          4087.161131                       # Cycle average of tags in use
system.cpu.dcache.tags.total_refs            40415246                       # Total number of references to valid blocks.
system.cpu.dcache.tags.sampled_refs          12963209                       # Sample count of references to valid blocks.
system.cpu.dcache.tags.avg_refs              3.117688                       # Average number of references to valid blocks.
system.cpu.dcache.tags.warmup_cycle        7902863500                       # Cycle when the warmup percentage was hit.
system.cpu.dcache.tags.occ_blocks::cpu.data  4087.161131                       # Average occupied blocks per requestor
system.cpu.dcache.tags.occ_percent::cpu.data     0.997842                       # Average percentage of cache occupancy
system.cpu.dcache.tags.occ_percent::total     0.997842                       # Average percentage of cache occupancy
system.cpu.dcache.tags.occ_task_id_blocks::1024         4096                       # Occupied blocks per task id
system.cpu.dcache.tags.age_task_id_blocks_1024::0          114                       # Occupied blocks per task id
system.cpu.dcache.tags.age_task_id_blocks_1024::1         1042                       # Occupied blocks per task id
system.cpu.dcache.tags.age_task_id_blocks_1024::2         2940                       # Occupied blocks per task id
system.cpu.dcache.tags.occ_task_id_percent::1024            1                       # Percentage of cache occupancy per task id
system.cpu.dcache.tags.tag_accesses         119720119                       # Number of tag accesses
system.cpu.dcache.tags.data_accesses        119720119                       # Number of data accesses
system.cpu.dcache.ReadReq_hits::cpu.data      1349649                       # number of ReadReq hits
system.cpu.dcache.ReadReq_hits::total         1349649                       # number of ReadReq hits
system.cpu.dcache.WriteReq_hits::cpu.data     39065597                       # number of WriteReq hits
system.cpu.dcache.WriteReq_hits::total       39065597                       # number of WriteReq hits
system.cpu.dcache.demand_hits::cpu.data      40415246                       # number of demand (read+write) hits
system.cpu.dcache.demand_hits::total         40415246                       # number of demand (read+write) hits
system.cpu.dcache.overall_hits::cpu.data     40415246                       # number of overall hits
system.cpu.dcache.overall_hits::total        40415246                       # number of overall hits
system.cpu.dcache.ReadReq_misses::cpu.data          493                       # number of ReadReq misses
system.cpu.dcache.ReadReq_misses::total           493                       # number of ReadReq misses
system.cpu.dcache.WriteReq_misses::cpu.data     12962716                       # number of WriteReq misses
system.cpu.dcache.WriteReq_misses::total     12962716                       # number of WriteReq misses
system.cpu.dcache.demand_misses::cpu.data     12963209                       # number of demand (read+write) misses
system.cpu.dcache.demand_misses::total       12963209                       # number of demand (read+write) misses
system.cpu.dcache.overall_misses::cpu.data     12963209                       # number of overall misses
system.cpu.dcache.overall_misses::total      12963209                       # number of overall misses
system.cpu.dcache.ReadReq_miss_latency::cpu.data     40214500                       # number of ReadReq miss cycles
system.cpu.dcache.ReadReq_miss_latency::total     40214500                       # number of ReadReq miss cycles
system.cpu.dcache.WriteReq_miss_latency::cpu.data 1014559801000                       # number of WriteReq miss cycles
system.cpu.dcache.WriteReq_miss_latency::total 1014559801000                       # number of WriteReq miss cycles
system.cpu.dcache.demand_miss_latency::cpu.data 1014600015500                       # number of demand (read+write) miss cycles
system.cpu.dcache.demand_miss_latency::total 1014600015500                       # number of demand (read+write) miss cycles
system.cpu.dcache.overall_miss_latency::cpu.data 1014600015500                       # number of overall miss cycles
system.cpu.dcache.overall_miss_latency::total 1014600015500                       # number of overall miss cycles
system.cpu.dcache.ReadReq_accesses::cpu.data      1350142                       # number of ReadReq accesses(hits+misses)
system.cpu.dcache.ReadReq_accesses::total      1350142                       # number of ReadReq accesses(hits+misses)
system.cpu.dcache.WriteReq_accesses::cpu.data     52028313                       # number of WriteReq accesses(hits+misses)
system.cpu.dcache.WriteReq_accesses::total     52028313                       # number of WriteReq accesses(hits+misses)
system.cpu.dcache.demand_accesses::cpu.data     53378455                       # number of demand (read+write) accesses
system.cpu.dcache.demand_accesses::total     53378455                       # number of demand (read+write) accesses
system.cpu.dcache.overall_accesses::cpu.data     53378455                       # number of overall (read+write) accesses
system.cpu.dcache.overall_accesses::total     53378455                       # number of overall (read+write) accesses
system.cpu.dcache.ReadReq_miss_rate::cpu.data     0.000365                       # miss rate for ReadReq accesses
system.cpu.dcache.ReadReq_miss_rate::total     0.000365                       # miss rate for ReadReq accesses
system.cpu.dcache.WriteReq_miss_rate::cpu.data     0.249147                       # miss rate for WriteReq accesses
system.cpu.dcache.WriteReq_miss_rate::total     0.249147                       # miss rate for WriteReq accesses
system.cpu.dcache.demand_miss_rate::cpu.data     0.242855                       # miss rate for demand accesses
system.cpu.dcache.demand_miss_rate::total     0.242855                       # miss rate for demand accesses
system.cpu.dcache.overall_miss_rate::cpu.data     0.242855                       # miss rate for overall accesses
system.cpu.dcache.overall_miss_rate::total     0.242855                       # miss rate for overall accesses
system.cpu.dcache.ReadReq_avg_miss_latency::cpu.data 81570.993915                       # average ReadReq miss latency
system.cpu.dcache.ReadReq_avg_miss_latency::total 81570.993915                       # average ReadReq miss latency
system.cpu.dcache.WriteReq_avg_miss_latency::cpu.data 78267.532900                       # average WriteReq miss latency
system.cpu.dcache.WriteReq_avg_miss_latency::total 78267.532900                       # average WriteReq miss latency
system.cpu.dcache.demand_avg_miss_latency::cpu.data 78267.658533                       # average overall miss latency
system.cpu.dcache.demand_avg_miss_latency::total 78267.658533                       # average overall miss latency
system.cpu.dcache.overall_avg_miss_latency::cpu.data 78267.658533                       # average overall miss latency
system.cpu.dcache.overall_avg_miss_latency::total 78267.658533                       # average overall miss latency
system.cpu.dcache.blocked_cycles::no_mshrs            0                       # number of cycles access was blocked
system.cpu.dcache.blocked_cycles::no_targets            0                       # number of cycles access was blocked
system.cpu.dcache.blocked::no_mshrs                 0                       # number of cycles access was blocked
system.cpu.dcache.blocked::no_targets               0                       # number of cycles access was blocked
system.cpu.dcache.avg_blocked_cycles::no_mshrs          nan                       # average number of cycles each access was blocked
system.cpu.dcache.avg_blocked_cycles::no_targets          nan                       # average number of cycles each access was blocked
system.cpu.dcache.fast_writes                       0                       # number of fast writes performed
system.cpu.dcache.cache_copies                      0                       # number of cache copies performed
system.cpu.dcache.writebacks::writebacks     12958730                       # number of writebacks
system.cpu.dcache.writebacks::total          12958730                       # number of writebacks
system.cpu.dcache.ReadReq_mshr_misses::cpu.data          493                       # number of ReadReq MSHR misses
system.cpu.dcache.ReadReq_mshr_misses::total          493                       # number of ReadReq MSHR misses
system.cpu.dcache.WriteReq_mshr_misses::cpu.data     12962716                       # number of WriteReq MSHR misses
system.cpu.dcache.WriteReq_mshr_misses::total     12962716                       # number of WriteReq MSHR misses
system.cpu.dcache.demand_mshr_misses::cpu.data     12963209                       # number of demand (read+write) MSHR misses
system.cpu.dcache.demand_mshr_misses::total     12963209                       # number of demand (read+write) MSHR misses
system.cpu.dcache.overall_mshr_misses::cpu.data     12963209                       # number of overall MSHR misses
system.cpu.dcache.overall_mshr_misses::total     12963209                       # number of overall MSHR misses
system.cpu.dcache.ReadReq_mshr_miss_latency::cpu.data     39721500                       # number of ReadReq MSHR miss cycles
system.cpu.dcache.ReadReq_mshr_miss_latency::total     39721500                       # number of ReadReq MSHR miss cycles
system.cpu.dcache.WriteReq_mshr_miss_latency::cpu.data 1001597085000                       # number of WriteReq MSHR miss cycles
system.cpu.dcache.WriteReq_mshr_miss_latency::total 1001597085000                       # number of WriteReq MSHR miss cycles
system.cpu.dcache.demand_mshr_miss_latency::cpu.data 1001636806500                       # number of demand (read+write) MSHR miss cycles
system.cpu.dcache.demand_mshr_miss_latency::total 1001636806500                       # number of demand (read+write) MSHR miss cycles
system.cpu.dcache.overall_mshr_miss_latency::cpu.data 1001636806500                       # number of overall MSHR miss cycles
system.cpu.dcache.overall_mshr_miss_latency::total 1001636806500                       # number of overall MSHR miss cycles
system.cpu.dcache.ReadReq_mshr_miss_rate::cpu.data     0.000365                       # mshr miss rate for ReadReq accesses
system.cpu.dcache.ReadReq_mshr_miss_rate::total     0.000365                       # mshr miss rate for ReadReq accesses
system.cpu.dcache.WriteReq_mshr_miss_rate::cpu.data     0.249147                       # mshr miss rate for WriteReq accesses
system.cpu.dcache.WriteReq_mshr_miss_rate::total     0.249147                       # mshr miss rate for WriteReq accesses
system.cpu.dcache.demand_mshr_miss_rate::cpu.data     0.242855                       # mshr miss rate for demand accesses
system.cpu.dcache.demand_mshr_miss_rate::total     0.242855                       # mshr miss rate for demand accesses
system.cpu.dcache.overall_mshr_miss_rate::cpu.data     0.242855                       # mshr miss rate for overall accesses
system.cpu.dcache.overall_mshr_miss_rate::total     0.242855                       # mshr miss rate for overall accesses
system.cpu.dcache.ReadReq_avg_mshr_miss_latency::cpu.data 80570.993915                       # average ReadReq mshr miss latency
system.cpu.dcache.ReadReq_avg_mshr_miss_latency::total 80570.993915                       # average ReadReq mshr miss latency
system.cpu.dcache.WriteReq_avg_mshr_miss_latency::cpu.data 77267.532900                       # average WriteReq mshr miss latency
system.cpu.dcache.WriteReq_avg_mshr_miss_latency::total 77267.532900                       # average WriteReq mshr miss latency
system.cpu.dcache.demand_avg_mshr_miss_latency::cpu.data 77267.658533                       # average overall mshr miss latency
system.cpu.dcache.demand_avg_mshr_miss_latency::total 77267.658533                       # average overall mshr miss latency
system.cpu.dcache.overall_avg_mshr_miss_latency::cpu.data 77267.658533                       # average overall mshr miss latency
system.cpu.dcache.overall_avg_mshr_miss_latency::total 77267.658533                       # average overall mshr miss latency
system.cpu.dcache.no_allocate_misses                0                       # Number of misses that were no-allocate
system.cpu.dtb_walker_cache.tags.replacements            0                       # number of replacements
system.cpu.dtb_walker_cache.tags.tagsinuse            0                       # Cycle average of tags in use
system.cpu.dtb_walker_cache.tags.total_refs            0                       # Total number of references to valid blocks.
system.cpu.dtb_walker_cache.tags.sampled_refs            0                       # Sample count of references to valid blocks.
system.cpu.dtb_walker_cache.tags.avg_refs          nan                       # Average number of references to valid blocks.
system.cpu.dtb_walker_cache.tags.warmup_cycle            0                       # Cycle when the warmup percentage was hit.
system.cpu.dtb_walker_cache.tags.tag_accesses            0                       # Number of tag accesses
system.cpu.dtb_walker_cache.tags.data_accesses            0                       # Number of data accesses
system.cpu.dtb_walker_cache.blocked_cycles::no_mshrs            0                       # number of cycles access was blocked
system.cpu.dtb_walker_cache.blocked_cycles::no_targets            0                       # number of cycles access was blocked
system.cpu.dtb_walker_cache.blocked::no_mshrs            0                       # number of cycles access was blocked
system.cpu.dtb_walker_cache.blocked::no_targets            0                       # number of cycles access was blocked
system.cpu.dtb_walker_cache.avg_blocked_cycles::no_mshrs          nan                       # average number of cycles each access was blocked
system.cpu.dtb_walker_cache.avg_blocked_cycles::no_targets          nan                       # average number of cycles each access was blocked
system.cpu.dtb_walker_cache.fast_writes             0                       # number of fast writes performed
system.cpu.dtb_walker_cache.cache_copies            0                       # number of cache copies performed
system.cpu.dtb_walker_cache.no_allocate_misses            0                       # Number of misses that were no-allocate
system.cpu.icache.tags.replacements                71                       # number of replacements
system.cpu.icache.tags.tagsinuse           866.817424                       # Cycle average of tags in use
system.cpu.icache.tags.total_refs            70767127                       # Total number of references to valid blocks.
system.cpu.icache.tags.sampled_refs              1408                       # Sample count of references to valid blocks.
system.cpu.icache.tags.avg_refs          50260.743608                       # Average number of references to valid blocks.
system.cpu.icache.tags.warmup_cycle                 0                       # Cycle when the warmup percentage was hit.
system.cpu.icache.tags.occ_blocks::cpu.inst   866.817424                       # Average occupied blocks per requestor
system.cpu.icache.tags.occ_percent::cpu.inst     0.211625                       # Average percentage of cache occupancy
system.cpu.icache.tags.occ_percent::total     0.211625                       # Average percentage of cache occupancy
system.cpu.icache.tags.occ_task_id_blocks::1024         1337                       # Occupied blocks per task id
system.cpu.icache.tags.age_task_id_blocks_1024::4         1337                       # Occupied blocks per task id
system.cpu.icache.tags.occ_task_id_percent::1024     0.326416                       # Percentage of cache occupancy per task id
system.cpu.icache.tags.tag_accesses         141538478                       # Number of tag accesses
system.cpu.icache.tags.data_accesses        141538478                       # Number of data accesses
system.cpu.icache.ReadReq_hits::cpu.inst     70767127                       # number of ReadReq hits
system.cpu.icache.ReadReq_hits::total        70767127                       # number of ReadReq hits
system.cpu.icache.demand_hits::cpu.inst      70767127                       # number of demand (read+write) hits
system.cpu.icache.demand_hits::total         70767127                       # number of demand (read+write) hits
system.cpu.icache.overall_hits::cpu.inst     70767127                       # number of overall hits
system.cpu.icache.overall_hits::total        70767127                       # number of overall hits
system.cpu.icache.ReadReq_misses::cpu.inst         1408                       # number of ReadReq misses
system.cpu.icache.ReadReq_misses::total          1408                       # number of ReadReq misses
system.cpu.icache.demand_misses::cpu.inst         1408                       # number of demand (read+write) misses
system.cpu.icache.demand_misses::total           1408                       # number of demand (read+write) misses
system.cpu.icache.overall_misses::cpu.inst         1408                       # number of overall misses
system.cpu.icache.overall_misses::total          1408                       # number of overall misses
system.cpu.icache.ReadReq_miss_latency::cpu.inst    110702000                       # number of ReadReq miss cycles
system.cpu.icache.ReadReq_miss_latency::total    110702000                       # number of ReadReq miss cycles
system.cpu.icache.demand_miss_latency::cpu.inst    110702000                       # number of demand (read+write) miss cycles
system.cpu.icache.demand_miss_latency::total    110702000                       # number of demand (read+write) miss cycles
system.cpu.icache.overall_miss_latency::cpu.inst    110702000                       # number of overall miss cycles
system.cpu.icache.overall_miss_latency::total    110702000                       # number of overall miss cycles
system.cpu.icache.ReadReq_accesses::cpu.inst     70768535                       # number of ReadReq accesses(hits+misses)
system.cpu.icache.ReadReq_accesses::total     70768535                       # number of ReadReq accesses(hits+misses)
system.cpu.icache.demand_accesses::cpu.inst     70768535                       # number of demand (read+write) accesses
system.cpu.icache.demand_accesses::total     70768535                       # number of demand (read+write) accesses
system.cpu.icache.overall_accesses::cpu.inst     70768535                       # number of overall (read+write) accesses
system.cpu.icache.overall_accesses::total     70768535                       # number of overall (read+write) accesses
system.cpu.icache.ReadReq_miss_rate::cpu.inst     0.000020                       # miss rate for ReadReq accesses
system.cpu.icache.ReadReq_miss_rate::total     0.000020                       # miss rate for ReadReq accesses
system.cpu.icache.demand_miss_rate::cpu.inst     0.000020                       # miss rate for demand accesses
system.cpu.icache.demand_miss_rate::total     0.000020                       # miss rate for demand accesses
system.cpu.icache.overall_miss_rate::cpu.inst     0.000020                       # miss rate for overall accesses
system.cpu.icache.overall_miss_rate::total     0.000020                       # miss rate for overall accesses
system.cpu.icache.ReadReq_avg_miss_latency::cpu.inst 78623.579545                       # average ReadReq miss latency
system.cpu.icache.ReadReq_avg_miss_latency::total 78623.579545                       # average ReadReq miss latency
system.cpu.icache.demand_avg_miss_latency::cpu.inst 78623.579545                       # average overall miss latency
system.cpu.icache.demand_avg_miss_latency::total 78623.579545                       # average overall miss latency
system.cpu.icache.overall_avg_miss_latency::cpu.inst 78623.579545                       # average overall miss latency
system.cpu.icache.overall_avg_miss_latency::total 78623.579545                       # average overall miss latency
system.cpu.icache.blocked_cycles::no_mshrs            0                       # number of cycles access was blocked
system.cpu.icache.blocked_cycles::no_targets            0                       # number of cycles access was blocked
system.cpu.icache.blocked::no_mshrs                 0                       # number of cycles access was blocked
system.cpu.icache.blocked::no_targets               0                       # number of cycles access was blocked
system.cpu.icache.avg_blocked_cycles::no_mshrs          nan                       # average number of cycles each access was blocked
system.cpu.icache.avg_blocked_cycles::no_targets          nan                       # average number of cycles each access was blocked
system.cpu.icache.fast_writes                       0                       # number of fast writes performed
system.cpu.icache.cache_copies                      0                       # number of cache copies performed
system.cpu.icache.writebacks::writebacks           71                       # number of writebacks
system.cpu.icache.writebacks::total                71                       # number of writebacks
system.cpu.icache.ReadReq_mshr_misses::cpu.inst         1408                       # number of ReadReq MSHR misses
system.cpu.icache.ReadReq_mshr_misses::total         1408                       # number of ReadReq MSHR misses
system.cpu.icache.demand_mshr_misses::cpu.inst         1408                       # number of demand (read+write) MSHR misses
system.cpu.icache.demand_mshr_misses::total         1408                       # number of demand (read+write) MSHR misses
system.cpu.icache.overall_mshr_misses::cpu.inst         1408                       # number of overall MSHR misses
system.cpu.icache.overall_mshr_misses::total         1408                       # number of overall MSHR misses
system.cpu.icache.ReadReq_mshr_miss_latency::cpu.inst    109294000                       # number of ReadReq MSHR miss cycles
system.cpu.icache.ReadReq_mshr_miss_latency::total    109294000                       # number of ReadReq MSHR miss cycles
system.cpu.icache.demand_mshr_miss_latency::cpu.inst    109294000                       # number of demand (read+write) MSHR miss cycles
system.cpu.icache.demand_mshr_miss_latency::total    109294000                       # number of demand (read+write) MSHR miss cycles
system.cpu.icache.overall_mshr_miss_latency::cpu.inst    109294000                       # number of overall MSHR miss cycles
system.cpu.icache.overall_mshr_miss_latency::total    109294000                       # number of overall MSHR miss cycles
system.cpu.icache.ReadReq_mshr_miss_rate::cpu.inst     0.000020                       # mshr miss rate for ReadReq accesses
system.cpu.icache.ReadReq_mshr_miss_rate::total     0.000020                       # mshr miss rate for ReadReq accesses
system.cpu.icache.demand_mshr_miss_rate::cpu.inst     0.000020                       # mshr miss rate for demand accesses
system.cpu.icache.demand_mshr_miss_rate::total     0.000020                       # mshr miss rate for demand accesses
system.cpu.icache.overall_mshr_miss_rate::cpu.inst     0.000020                       # mshr miss rate for overall accesses
system.cpu.icache.overall_mshr_miss_rate::total     0.000020                       # mshr miss rate for overall accesses
system.cpu.icache.ReadReq_avg_mshr_miss_latency::cpu.inst 77623.579545                       # average ReadReq mshr miss latency
system.cpu.icache.ReadReq_avg_mshr_miss_latency::total 77623.579545                       # average ReadReq mshr miss latency
system.cpu.icache.demand_avg_mshr_miss_latency::cpu.inst 77623.579545                       # average overall mshr miss latency
system.cpu.icache.demand_avg_mshr_miss_latency::total 77623.579545                       # average overall mshr miss latency
system.cpu.icache.overall_avg_mshr_miss_latency::cpu.inst 77623.579545                       # average overall mshr miss latency
system.cpu.icache.overall_avg_mshr_miss_latency::total 77623.579545                       # average overall mshr miss latency
system.cpu.icache.no_allocate_misses                0                       # Number of misses that were no-allocate
system.cpu.itb_walker_cache.tags.replacements            0                       # number of replacements
system.cpu.itb_walker_cache.tags.tagsinuse            0                       # Cycle average of tags in use
system.cpu.itb_walker_cache.tags.total_refs            0                       # Total number of references to valid blocks.
system.cpu.itb_walker_cache.tags.sampled_refs            0                       # Sample count of references to valid blocks.
system.cpu.itb_walker_cache.tags.avg_refs          nan                       # Average number of references to valid blocks.
system.cpu.itb_walker_cache.tags.warmup_cycle            0                       # Cycle when the warmup percentage was hit.
system.cpu.itb_walker_cache.tags.tag_accesses            0                       # Number of tag accesses
system.cpu.itb_walker_cache.tags.data_accesses            0                       # Number of data accesses
system.cpu.itb_walker_cache.blocked_cycles::no_mshrs            0                       # number of cycles access was blocked
system.cpu.itb_walker_cache.blocked_cycles::no_targets            0                       # number of cycles access was blocked
system.cpu.itb_walker_cache.blocked::no_mshrs            0                       # number of cycles access was blocked
system.cpu.itb_walker_cache.blocked::no_targets            0                       # number of cycles access was blocked
system.cpu.itb_walker_cache.avg_blocked_cycles::no_mshrs          nan                       # average number of cycles each access was blocked
system.cpu.itb_walker_cache.avg_blocked_cycles::no_targets          nan                       # average number of cycles each access was blocked
system.cpu.itb_walker_cache.fast_writes             0                       # number of fast writes performed
system.cpu.itb_walker_cache.cache_copies            0                       # number of cache copies performed
system.cpu.itb_walker_cache.no_allocate_misses            0                       # Number of misses that were no-allocate
system.l2.tags.replacements                  12833531                       # number of replacements
system.l2.tags.tagsinuse                 125507.983471                       # Cycle average of tags in use
system.l2.tags.total_refs                         578                       # Total number of references to valid blocks.
system.l2.tags.sampled_refs                  12960507                       # Sample count of references to valid blocks.
system.l2.tags.avg_refs                      0.000045                       # Average number of references to valid blocks.
system.l2.tags.warmup_cycle                         0                       # Cycle when the warmup percentage was hit.
system.l2.tags.occ_blocks::writebacks    125487.875100                       # Average occupied blocks per requestor
system.l2.tags.occ_blocks::cpu.inst         15.408272                       # Average occupied blocks per requestor
system.l2.tags.occ_blocks::cpu.data          4.700100                       # Average occupied blocks per requestor
system.l2.tags.occ_percent::writebacks       0.957397                       # Average percentage of cache occupancy
system.l2.tags.occ_percent::cpu.inst         0.000118                       # Average percentage of cache occupancy
system.l2.tags.occ_percent::cpu.data         0.000036                       # Average percentage of cache occupancy
system.l2.tags.occ_percent::total            0.957550                       # Average percentage of cache occupancy
system.l2.tags.occ_task_id_blocks::1024        126976                       # Occupied blocks per task id
system.l2.tags.age_task_id_blocks_1024::0          114                       # Occupied blocks per task id
system.l2.tags.age_task_id_blocks_1024::1         1042                       # Occupied blocks per task id
system.l2.tags.age_task_id_blocks_1024::2        10427                       # Occupied blocks per task id
system.l2.tags.age_task_id_blocks_1024::3       104307                       # Occupied blocks per task id
system.l2.tags.age_task_id_blocks_1024::4        11086                       # Occupied blocks per task id
system.l2.tags.occ_task_id_percent::1024     0.968750                       # Percentage of cache occupancy per task id
system.l2.tags.tag_accesses                  77770825                       # Number of tag accesses
system.l2.tags.data_accesses                 77770825                       # Number of data accesses
system.l2.WritebackDirty_hits::writebacks     12958730                       # number of WritebackDirty hits
system.l2.WritebackDirty_hits::total         12958730                       # number of WritebackDirty hits
system.l2.WritebackClean_hits::writebacks           71                       # number of WritebackClean hits
system.l2.WritebackClean_hits::total               71                       # number of WritebackClean hits
system.l2.ReadExReq_hits::cpu.data                  8                       # number of ReadExReq hits
system.l2.ReadExReq_hits::total                     8                       # number of ReadExReq hits
system.l2.ReadCleanReq_hits::cpu.inst              33                       # number of ReadCleanReq hits
system.l2.ReadCleanReq_hits::total                 33                       # number of ReadCleanReq hits
system.l2.ReadSharedReq_hits::cpu.data             10                       # number of ReadSharedReq hits
system.l2.ReadSharedReq_hits::total                10                       # number of ReadSharedReq hits
system.l2.demand_hits::cpu.inst                    33                       # number of demand (read+write) hits
system.l2.demand_hits::cpu.data                    18                       # number of demand (read+write) hits
system.l2.demand_hits::total                       51                       # number of demand (read+write) hits
system.l2.overall_hits::cpu.inst                   33                       # number of overall hits
system.l2.overall_hits::cpu.data                   18                       # number of overall hits
system.l2.overall_hits::total                      51                       # number of overall hits
system.l2.ReadExReq_misses::cpu.data         12962708                       # number of ReadExReq misses
system.l2.ReadExReq_misses::total            12962708                       # number of ReadExReq misses
system.l2.ReadCleanReq_misses::cpu.inst          1375                       # number of ReadCleanReq misses
system.l2.ReadCleanReq_misses::total             1375                       # number of ReadCleanReq misses
system.l2.ReadSharedReq_misses::cpu.data          483                       # number of ReadSharedReq misses
system.l2.ReadSharedReq_misses::total             483                       # number of ReadSharedReq misses
system.l2.demand_misses::cpu.inst                1375                       # number of demand (read+write) misses
system.l2.demand_misses::cpu.data            12963191                       # number of demand (read+write) misses
system.l2.demand_misses::total               12964566                       # number of demand (read+write) misses
system.l2.overall_misses::cpu.inst               1375                       # number of overall misses
system.l2.overall_misses::cpu.data           12963191                       # number of overall misses
system.l2.overall_misses::total              12964566                       # number of overall misses
system.l2.ReadExReq_miss_latency::cpu.data 982152927000                       # number of ReadExReq miss cycles
system.l2.ReadExReq_miss_latency::total  982152927000                       # number of ReadExReq miss cycles
system.l2.ReadCleanReq_miss_latency::cpu.inst    106835500                       # number of ReadCleanReq miss cycles
system.l2.ReadCleanReq_miss_latency::total    106835500                       # number of ReadCleanReq miss cycles
system.l2.ReadSharedReq_miss_latency::cpu.data     38876500                       # number of ReadSharedReq miss cycles
system.l2.ReadSharedReq_miss_latency::total     38876500                       # number of ReadSharedReq miss cycles
system.l2.demand_miss_latency::cpu.inst     106835500                       # number of demand (read+write) miss cycles
system.l2.demand_miss_latency::cpu.data  982191803500                       # number of demand (read+write) miss cycles
system.l2.demand_miss_latency::total     982298639000                       # number of demand (read+write) miss cycles
system.l2.overall_miss_latency::cpu.inst    106835500                       # number of overall miss cycles
system.l2.overall_miss_latency::cpu.data 982191803500                       # number of overall miss cycles
system.l2.overall_miss_latency::total    982298639000                       # number of overall miss cycles
system.l2.WritebackDirty_accesses::writebacks     12958730                       # number of WritebackDirty accesses(hits+misses)
system.l2.WritebackDirty_accesses::total     12958730                       # number of WritebackDirty accesses(hits+misses)
system.l2.WritebackClean_accesses::writebacks           71                       # number of WritebackClean accesses(hits+misses)
system.l2.WritebackClean_accesses::total           71                       # number of WritebackClean accesses(hits+misses)
system.l2.ReadExReq_accesses::cpu.data       12962716                       # number of ReadExReq accesses(hits+misses)
system.l2.ReadExReq_accesses::total          12962716                       # number of ReadExReq accesses(hits+misses)
system.l2.ReadCleanReq_accesses::cpu.inst         1408                       # number of ReadCleanReq accesses(hits+misses)
system.l2.ReadCleanReq_accesses::total           1408                       # number of ReadCleanReq accesses(hits+misses)
system.l2.ReadSharedReq_accesses::cpu.data          493                       # number of ReadSharedReq accesses(hits+misses)
system.l2.ReadSharedReq_accesses::total           493                       # number of ReadSharedReq accesses(hits+misses)
system.l2.demand_accesses::cpu.inst              1408                       # number of demand (read+write) accesses
system.l2.demand_accesses::cpu.data          12963209                       # number of demand (read+write) accesses
system.l2.demand_accesses::total             12964617                       # number of demand (read+write) accesses
system.l2.overall_accesses::cpu.inst             1408                       # number of overall (read+write) accesses
system.l2.overall_accesses::cpu.data         12963209                       # number of overall (read+write) accesses
system.l2.overall_accesses::total            12964617                       # number of overall (read+write) accesses
system.l2.ReadExReq_miss_rate::cpu.data      0.999999                       # miss rate for ReadExReq accesses
system.l2.ReadExReq_miss_rate::total         0.999999                       # miss rate for ReadExReq accesses
system.l2.ReadCleanReq_miss_rate::cpu.inst     0.976562                       # miss rate for ReadCleanReq accesses
system.l2.ReadCleanReq_miss_rate::total      0.976562                       # miss rate for ReadCleanReq accesses
system.l2.ReadSharedReq_miss_rate::cpu.data     0.979716                       # miss rate for ReadSharedReq accesses
system.l2.ReadSharedReq_miss_rate::total     0.979716                       # miss rate for ReadSharedReq accesses
system.l2.demand_miss_rate::cpu.inst         0.976562                       # miss rate for demand accesses
system.l2.demand_miss_rate::cpu.data         0.999999                       # miss rate for demand accesses
system.l2.demand_miss_rate::total            0.999996                       # miss rate for demand accesses
system.l2.overall_miss_rate::cpu.inst        0.976562                       # miss rate for overall accesses
system.l2.overall_miss_rate::cpu.data        0.999999                       # miss rate for overall accesses
system.l2.overall_miss_rate::total           0.999996                       # miss rate for overall accesses
system.l2.ReadExReq_avg_miss_latency::cpu.data 75767.573180                       # average ReadExReq miss latency
system.l2.ReadExReq_avg_miss_latency::total 75767.573180                       # average ReadExReq miss latency
system.l2.ReadCleanReq_avg_miss_latency::cpu.inst 77698.545455                       # average ReadCleanReq miss latency
system.l2.ReadCleanReq_avg_miss_latency::total 77698.545455                       # average ReadCleanReq miss latency
system.l2.ReadSharedReq_avg_miss_latency::cpu.data 80489.648033                       # average ReadSharedReq miss latency
system.l2.ReadSharedReq_avg_miss_latency::total 80489.648033                       # average ReadSharedReq miss latency
system.l2.demand_avg_miss_latency::cpu.inst 77698.545455                       # average overall miss latency
system.l2.demand_avg_miss_latency::cpu.data 75767.749121                       # average overall miss latency
system.l2.demand_avg_miss_latency::total 75767.953898                       # average overall miss latency
system.l2.overall_avg_miss_latency::cpu.inst 77698.545455                       # average overall miss latency
system.l2.overall_avg_miss_latency::cpu.data 75767.749121                       # average overall miss latency
system.l2.overall_avg_miss_latency::total 75767.953898                       # average overall miss latency
system.l2.blocked_cycles::no_mshrs                  0                       # number of cycles access was blocked
system.l2.blocked_cycles::no_targets                0                       # number of cycles access was blocked
system.l2.blocked::no_mshrs                         0                       # number of cycles access was blocked
system.l2.blocked::no_targets                       0                       # number of cycles access was blocked
system.l2.avg_blocked_cycles::no_mshrs            nan                       # average number of cycles each access was blocked
system.l2.avg_blocked_cycles::no_targets          nan                       # average number of cycles each access was blocked
system.l2.fast_writes                               0                       # number of fast writes performed
system.l2.cache_copies                              0                       # number of cache copies performed
system.l2.writebacks::writebacks             12831737                       # number of writebacks
system.l2.writebacks::total                  12831737                       # number of writebacks
system.l2.ReadExReq_mshr_misses::cpu.data     12962708                       # number of ReadExReq MSHR misses
system.l2.ReadExReq_mshr_misses::total       12962708                       # number of ReadExReq MSHR misses
system.l2.ReadCleanReq_mshr_misses::cpu.inst         1375                       # number of ReadCleanReq MSHR misses
system.l2.ReadCleanReq_mshr_misses::total         1375                       # number of ReadCleanReq MSHR misses
system.l2.ReadSharedReq_mshr_misses::cpu.data          483                       # number of ReadSharedReq MSHR misses
system.l2.ReadSharedReq_mshr_misses::total          483                       # number of ReadSharedReq MSHR misses
system.l2.demand_mshr_misses::cpu.inst           1375                       # number of demand (read+write) MSHR misses
system.l2.demand_mshr_misses::cpu.data       12963191                       # number of demand (read+write) MSHR misses
system.l2.demand_mshr_misses::total          12964566                       # number of demand (read+write) MSHR misses
system.l2.overall_mshr_misses::cpu.inst          1375                       # number of overall MSHR misses
system.l2.overall_mshr_misses::cpu.data      12963191                       # number of overall MSHR misses
system.l2.overall_mshr_misses::total         12964566                       # number of overall MSHR misses
system.l2.ReadExReq_mshr_miss_latency::cpu.data 852525847000                       # number of ReadExReq MSHR miss cycles
system.l2.ReadExReq_mshr_miss_latency::total 852525847000                       # number of ReadExReq MSHR miss cycles
system.l2.ReadCleanReq_mshr_miss_latency::cpu.inst     93085500                       # number of ReadCleanReq MSHR miss cycles
system.l2.ReadCleanReq_mshr_miss_latency::total     93085500                       # number of ReadCleanReq MSHR miss cycles
system.l2.ReadSharedReq_mshr_miss_latency::cpu.data     34046500                       # number of ReadSharedReq MSHR miss cycles
system.l2.ReadSharedReq_mshr_miss_latency::total     34046500                       # number of ReadSharedReq MSHR miss cycles
system.l2.demand_mshr_miss_latency::cpu.inst     93085500                       # number of demand (read+write) MSHR miss cycles
system.l2.demand_mshr_miss_latency::cpu.data 852559893500                       # number of demand (read+write) MSHR miss cycles
system.l2.demand_mshr_miss_latency::total 852652979000                       # number of demand (read+write) MSHR miss cycles
system.l2.overall_mshr_miss_latency::cpu.inst     93085500                       # number of overall MSHR miss cycles
system.l2.overall_mshr_miss_latency::cpu.data 852559893500                       # number of overall MSHR miss cycles
system.l2.overall_mshr_miss_latency::total 852652979000                       # number of overall MSHR miss cycles
system.l2.ReadExReq_mshr_miss_rate::cpu.data     0.999999                       # mshr miss rate for ReadExReq accesses
system.l2.ReadExReq_mshr_miss_rate::total     0.999999                       # mshr miss rate for ReadExReq accesses
system.l2.ReadCleanReq_mshr_miss_rate::cpu.inst     0.976562                       # mshr miss rate for ReadCleanReq accesses
system.l2.ReadCleanReq_mshr_miss_rate::total     0.976562                       # mshr miss rate for ReadCleanReq accesses
system.l2.ReadSharedReq_mshr_miss_rate::cpu.data     0.979716                       # mshr miss rate for ReadSharedReq accesses
system.l2.ReadSharedReq_mshr_miss_rate::total     0.979716                       # mshr miss rate for ReadSharedReq accesses
system.l2.demand_mshr_miss_rate::cpu.inst     0.976562                       # mshr miss rate for demand accesses
system.l2.demand_mshr_miss_rate::cpu.data     0.999999                       # mshr miss rate for demand accesses
system.l2.demand_mshr_miss_rate::total       0.999996                       # mshr miss rate for demand accesses
system.l2.overall_mshr_miss_rate::cpu.inst     0.976562                       # mshr miss rate for overall accesses
system.l2.overall_mshr_miss_rate::cpu.data     0.999999                       # mshr miss rate for overall accesses
system.l2.overall_mshr_miss_rate::total      0.999996                       # mshr miss rate for overall accesses
system.l2.ReadExReq_avg_mshr_miss_latency::cpu.data 65767.573180                       # average ReadExReq mshr miss latency
system.l2.ReadExReq_avg_mshr_miss_latency::total 65767.573180                       # average ReadExReq mshr miss latency
system.l2.ReadCleanReq_avg_mshr_miss_latency::cpu.inst 67698.545455                       # average ReadCleanReq mshr miss latency
system.l2.ReadCleanReq_avg_mshr_miss_latency::total 67698.545455                       # average ReadCleanReq mshr miss latency
system.l2.ReadSharedReq_avg_mshr_miss_latency::cpu.data 70489.648033                       # average ReadSharedReq mshr miss latency
system.l2.ReadSharedReq_avg_mshr_miss_latency::total 70489.648033                       # average ReadSharedReq mshr miss latency
system.l2.demand_avg_mshr_miss_latency::cpu.inst 67698.545455                       # average overall mshr miss latency
system.l2.demand_avg_mshr_miss_latency::cpu.data 65767.749121                       # average overall mshr miss latency
system.l2.demand_avg_mshr_miss_latency::total 65767.953898                       # average overall mshr miss latency
system.l2.overall_avg_mshr_miss_latency::cpu.inst 67698.545455                       # average overall mshr miss latency
system.l2.overall_avg_mshr_miss_latency::cpu.data 65767.749121                       # average overall mshr miss latency
system.l2.overall_avg_mshr_miss_latency::total 65767.953898                       # average overall mshr miss latency
system.l2.no_allocate_misses                        0                       # Number of misses that were no-allocate
system.membus.trans_dist::ReadResp               1858                       # Transaction distribution
system.membus.trans_dist::WritebackDirty     12831737                       # Transaction distribution
system.membus.trans_dist::CleanEvict              420                       # Transaction distribution
system.membus.trans_dist::ReadExReq          12962708                       # Transaction distribution
system.membus.trans_dist::ReadExResp         12962708                       # Transaction distribution
system.membus.trans_dist::ReadSharedReq          1858                       # Transaction distribution
system.membus.pkt_count_system.l2.mem_side::system.mem_ctrls.port     38761289                       # Packet count per connected master and slave (bytes)
system.membus.pkt_count_system.l2.mem_side::total     38761289                       # Packet count per connected master and slave (bytes)
system.membus.pkt_count::total               38761289                       # Packet count per connected master and slave (bytes)
system.membus.pkt_size_system.l2.mem_side::system.mem_ctrls.port    825481696                       # Cumulative packet size per connected master and slave (bytes)
system.membus.pkt_size_system.l2.mem_side::total    825481696                       # Cumulative packet size per connected master and slave (bytes)
system.membus.pkt_size::total               825481696                       # Cumulative packet size per connected master and slave (bytes)
system.membus.snoops                                0                       # Total snoops (count)
system.membus.snoop_fanout::samples          25796723                       # Request fanout histogram
system.membus.snoop_fanout::mean                    0                       # Request fanout histogram
system.membus.snoop_fanout::stdev                   0                       # Request fanout histogram
system.membus.snoop_fanout::underflows              0      0.00%      0.00% # Request fanout histogram
system.membus.snoop_fanout::0                25796723    100.00%    100.00% # Request fanout histogram
system.membus.snoop_fanout::1                       0      0.00%    100.00% # Request fanout histogram
system.membus.snoop_fanout::overflows               0      0.00%    100.00% # Request fanout histogram
system.membus.snoop_fanout::min_value               0                       # Request fanout histogram
system.membus.snoop_fanout::max_value               0                       # Request fanout histogram
system.membus.snoop_fanout::total            25796723                       # Request fanout histogram
system.membus.reqLayer2.occupancy         51460199500                       # Layer occupancy (ticks)
system.membus.reqLayer2.utilization               4.6                       # Layer utilization (%)
system.membus.respLayer1.occupancy        42312315250                       # Layer occupancy (ticks)
system.membus.respLayer1.utilization              3.8                       # Layer utilization (%)
system.tol2bus.snoop_filter.tot_requests     25923801                       # Total number of requests made to the snoop filter.
system.tol2bus.snoop_filter.hit_single_requests     12959184                       # Number of requests hitting in the snoop filter with a single holder of the requested data.
system.tol2bus.snoop_filter.hit_multi_requests            0                       # Number of requests hitting in the snoop filter with multiple (>1) holders of the requested data.
system.tol2bus.snoop_filter.tot_snoops           1374                       # Total number of snoops made to the snoop filter.
system.tol2bus.snoop_filter.hit_single_snoops         1374                       # Number of snoops hitting in the snoop filter with a single holder of the requested data.
system.tol2bus.snoop_filter.hit_multi_snoops            0                       # Number of snoops hitting in the snoop filter with multiple (>1) holders of the requested data.
system.tol2bus.trans_dist::ReadResp              1901                       # Transaction distribution
system.tol2bus.trans_dist::WritebackDirty     25790467                       # Transaction distribution
system.tol2bus.trans_dist::WritebackClean           71                       # Transaction distribution
system.tol2bus.trans_dist::CleanEvict            2177                       # Transaction distribution
system.tol2bus.trans_dist::ReadExReq         12962716                       # Transaction distribution
system.tol2bus.trans_dist::ReadExResp        12962716                       # Transaction distribution
system.tol2bus.trans_dist::ReadCleanReq          1408                       # Transaction distribution
system.tol2bus.trans_dist::ReadSharedReq          493                       # Transaction distribution
system.tol2bus.pkt_count_system.cpu.icache.mem_side::system.l2.cpu_side         2887                       # Packet count per connected master and slave (bytes)
system.tol2bus.pkt_count_system.cpu.dcache.mem_side::system.l2.cpu_side     38885531                       # Packet count per connected master and slave (bytes)
system.tol2bus.pkt_count::total              38888418                       # Packet count per connected master and slave (bytes)
system.tol2bus.pkt_size_system.cpu.icache.mem_side::system.l2.cpu_side        47328                       # Cumulative packet size per connected master and slave (bytes)
system.tol2bus.pkt_size_system.cpu.dcache.mem_side::system.l2.cpu_side    829502048                       # Cumulative packet size per connected master and slave (bytes)
system.tol2bus.pkt_size::total              829549376                       # Cumulative packet size per connected master and slave (bytes)
system.tol2bus.snoops                        12833531                       # Total snoops (count)
system.tol2bus.snoop_fanout::samples         25798148                       # Request fanout histogram
system.tol2bus.snoop_fanout::mean            0.000053                       # Request fanout histogram
system.tol2bus.snoop_fanout::stdev           0.007298                       # Request fanout histogram
system.tol2bus.snoop_fanout::underflows             0      0.00%      0.00% # Request fanout histogram
system.tol2bus.snoop_fanout::0               25796774     99.99%     99.99% # Request fanout histogram
system.tol2bus.snoop_fanout::1                   1374      0.01%    100.00% # Request fanout histogram
system.tol2bus.snoop_fanout::2                      0      0.00%    100.00% # Request fanout histogram
system.tol2bus.snoop_fanout::3                      0      0.00%    100.00% # Request fanout histogram
system.tol2bus.snoop_fanout::4                      0      0.00%    100.00% # Request fanout histogram
system.tol2bus.snoop_fanout::overflows              0      0.00%    100.00% # Request fanout histogram
system.tol2bus.snoop_fanout::min_value              0                       # Request fanout histogram
system.tol2bus.snoop_fanout::max_value              1                       # Request fanout histogram
system.tol2bus.snoop_fanout::total           25798148                       # Request fanout histogram
system.tol2bus.reqLayer0.occupancy        19441301000                       # Layer occupancy (ticks)
system.tol2bus.reqLayer0.utilization              1.7                       # Layer utilization (%)
system.tol2bus.respLayer0.occupancy           1408000                       # Layer occupancy (ticks)
system.tol2bus.respLayer0.utilization             0.0                       # Layer utilization (%)
system.tol2bus.respLayer1.occupancy       12963209000                       # Layer occupancy (ticks)
system.tol2bus.respLayer1.utilization             1.2                       # Layer utilization (%)

---------- End Simulation Statistics   ----------
